
**** 10/24/21 23:29:17 ****** PSpice 17.2.0 (March 2016) ****** ID# 0 ********

 EG2.2


 ****     CIRCUIT DESCRIPTION


******************************************************************************



V1 1 0 SIN(0 6 0.159 0 0 90)
R1 1 0 1
R2 1 0 2
R3 1 0 3
.TRAN 0.1 10
.PRINT VM(R1) VM(R2)
-------$
ERROR(ORPSIM-16283): Invalid analysis type
.END
