
**** 10/24/21 23:29:39 ****** PSpice 17.2.0 (March 2016) ****** ID# 0 ********

 EG2.2


 ****     CIRCUIT DESCRIPTION


******************************************************************************



V1 1 0 SIN(0 6 0.159 0 0 90)
R1 1 0 1
R2 1 0 2
R3 1 0 3
.TRAN 0.1 10
.PROBE
.END

**** 10/24/21 23:29:39 ****** PSpice 17.2.0 (March 2016) ****** ID# 0 ********

 EG2.2


 ****     INITIAL TRANSIENT SOLUTION       TEMPERATURE =   27.000 DEG C


******************************************************************************



 NODE   VOLTAGE     NODE   VOLTAGE     NODE   VOLTAGE     NODE   VOLTAGE


(    1)    6.0000  




    VOLTAGE SOURCE CURRENTS
    NAME         CURRENT

    V1          -1.100E+01

    TOTAL POWER DISSIPATION   6.60E+01  WATTS



          JOB CONCLUDED

**** 10/24/21 23:29:39 ****** PSpice 17.2.0 (March 2016) ****** ID# 0 ********

 EG2.2


 ****     JOB STATISTICS SUMMARY


******************************************************************************



  Total job time (using Solver 1)   =        0.00
