
**** 10/25/21 12:35:29 ****** PSpice 17.2.0 (March 2016) ****** ID# 0 ********

 EG8.4


 ****     CIRCUIT DESCRIPTION


******************************************************************************



C1 1 0 0.25 IC=10
R1 1 0 4
G 0 1 1 0 0.75
.TRAN 0.01 2 UIC
.PROBE
.END


          JOB CONCLUDED

**** 10/25/21 12:35:29 ****** PSpice 17.2.0 (March 2016) ****** ID# 0 ********

 EG8.4


 ****     JOB STATISTICS SUMMARY


******************************************************************************



  Total job time (using Solver 1)   =         .02
