
**** 10/25/21 12:51:09 ****** PSpice 17.2.0 (March 2016) ****** ID# 0 ********

 EG8.5


 ****     CIRCUIT DESCRIPTION


******************************************************************************



V1 1 0 10
R1 1 2 5
L1 2 0 2 IC=1
.TRAN 0.01 3 UIC
.PROBE
.END


          JOB CONCLUDED

**** 10/25/21 12:51:09 ****** PSpice 17.2.0 (March 2016) ****** ID# 0 ********

 EG8.5


 ****     JOB STATISTICS SUMMARY


******************************************************************************



  Total job time (using Solver 1)   =         .02
