
**** 10/25/21 12:06:59 ****** PSpice 17.2.0 (March 2016) ****** ID# 0 ********

 EG8.3


 ****     CIRCUIT DESCRIPTION


******************************************************************************



C1 1 0 0.1 IC=9
R1 1 0 9
S1 1 2 5 0 SMOD
S2 1 3 6 0 SMOD
R2 2 0 4.5
R3 3 0 72
.MODEL SMOD VSWITCH (VT=0.5)
V0 5 0 PWL(0 0 1 0 1 1)
V1 6 0 PWL(0 1 1 1 1 0)
.TRAN 0.01 2 UIC
.PROBE
.END

**** 10/25/21 12:06:59 ****** PSpice 17.2.0 (March 2016) ****** ID# 0 ********

 EG8.3


 ****     Voltage Controlled Switch MODEL PARAMETERS


******************************************************************************




               SMOD            
         RON    1            
        ROFF    1.000000E+12 
          VT     .5          
          VH    0            
          TD    0            



          JOB CONCLUDED

**** 10/25/21 12:06:59 ****** PSpice 17.2.0 (March 2016) ****** ID# 0 ********

 EG8.3


 ****     JOB STATISTICS SUMMARY


******************************************************************************



  Total job time (using Solver 1)   =         .06
