http transferring http://ptm.asu.edu/modelcard/PTM-MG/modelfiles/hp/20nfet.pm to D:\Code\PSPICE\Schematic\20nfet.pm
Circuit: * D:\Code\PSPICE\Schematic\chegg_opamp.asc

Unknown MOS level: 72
