Circuit: * D:\Code\PSPICE\Schematic\integrator.asc

Direct Newton iteration for .op point succeeded.
Heightened Def Con from 3.4171e-007 to 3.4171e-007
Heightened Def Con from 3.4171e-007 to 3.4171e-007
Heightened Def Con from 3.4171e-007 to 3.4171e-007
Heightened Def Con from 3.4171e-007 to 3.4171e-007
Heightened Def Con from 3.4171e-007 to 3.4171e-007
Heightened Def Con from 3.4171e-007 to 3.4171e-007
Heightened Def Con from 0.00501956 +++to 0.00501956
Heightened Def Con from 0.00501956 to 0.00501956
Heightened Def Con from 0.00501956 to 0.00501956
Heightened Def Con from 0.00501956 to 0.00501956
Heightened Def Con from 0.00501956 to 0.00501956
Heightened Def Con from 0.00501956 to 0.00501956
Heightened Def Con from 0.00501956 +to 0.00501956
Heightened Def Con from 0.00501956 ++to 0.00501956
Heightened Def Con from 0.00501956 ++to 0.00501956
Heightened Def Con from 0.00501956 to 0.00501956
Heightened Def Con from 0.00501956 to 0.00501956
Heightened Def Con from 0.00501956 to 0.00501956
Heightened Def Con from 0.00501956 +to 0.00501956
Heightened Def Con from 0.00501956 to 0.00501956
Heightened Def Con from 0.00501956 to 0.00501956
Heightened Def Con from 0.00501956 +++to 0.00501956
Heightened Def Con from 0.00501956 to 0.00501956
Heightened Def Con from 0.00501956 +++to 0.00501956
Heightened Def Con from 0.00501956 to 0.00501956
Heightened Def Con from 0.00501956 to 0.00501956
Heightened Def Con from 0.00501956 to 0.00501956
Heightened Def Con from 0.00501956 to 0.00501956
Heightened Def Con from 0.00501956 +to 0.00501956
Heightened Def Con from 0.00501956 to 0.00501956
Heightened Def Con from 0.00501956 to 0.00501956
Heightened Def Con from 0.00501956 +++to 0.00501956
Heightened Def Con from 0.00501956 to 0.00501956
Heightened Def Con from 0.00501956 to 0.00501956
Heightened Def Con from 0.00501956 ++++to 0.00501956
Heightened Def Con from 0.00501956 to 0.00501956
Heightened Def Con from 0.00503797 to 0.00503797
Heightened Def Con from 0.00503797 to 0.00503797
Heightened Def Con from 0.00505916 ++to 0.00505916
Heightened Def Con from 0.00505916 to 0.00505916
Heightened Def Con from 0.00505916 to 0.00505916
Heightened Def Con from 0.00505916 to 0.00505916
Heightened Def Con from 0.00505916 to 0.00505916
Heightened Def Con from 0.00505916 +to 0.00505916
Heightened Def Con from 0.00505916 +++++++++++++to 0.00505916
Heightened Def Con from 0.00507511 to 0.00507511
Heightened Def Con from 0.00507511 +to 0.00507511
Heightened Def Con from 0.00507511 to 0.00507511
Heightened Def Con from 0.00507511 to 0.00507511
Heightened Def Con from 0.00507511 to 0.00507511
Heightened Def Con from 0.00507511 to 0.00507511
Heightened Def Con from 0.00507511 +to 0.00507511
Heightened Def Con from 0.00507511 ++to 0.00507511
Heightened Def Con from 0.00507511 to 0.00507511
Heightened Def Con from 0.00507511 to 0.00507511
Heightened Def Con from 0.00507511 +to 0.00507511
Heightened Def Con from 0.00507511 to 0.00507511
Heightened Def Con from 0.00507511 to 0.00507511
Heightened Def Con from 0.00509612 to 0.00509612
Heightened Def Con from 0.00509612 +++++++++++++++++to 0.00509612
Heightened Def Con from 0.00511207 to 0.00511207
Heightened Def Con from 0.00511207 +to 0.00511207
Heightened Def Con from 0.00511207 +to 0.00511207
Heightened Def Con from 0.00511207 to 0.00511207
Heightened Def Con from 0.00511207 to 0.00511207
Heightened Def Con from 0.00511207 to 0.00511207
Heightened Def Con from 0.00511207 to 0.00511207
Heightened Def Con from 0.00511207 to 0.00511207
Heightened Def Con from 0.00511207 to 0.00511207
Heightened Def Con from 0.00511207 +to 0.00511207
Heightened Def Con from 0.00511207 to 0.00511207
Heightened Def Con from 0.00511207 to 0.00511207
Heightened Def Con from 0.00511207 to 0.00511207
Heightened Def Con from 0.00511207 to 0.00511207
Heightened Def Con from 0.00511207 to 0.00511207
Heightened Def Con from 0.00511207 to 0.00511207
Heightened Def Con from 0.00511207 to 0.00511207
Heightened Def Con from 0.00511207 +to 0.00511207
Heightened Def Con from 0.00511207 to 0.00511207
Heightened Def Con from 0.00511207 ++to 0.00511207
Heightened Def Con from 0.00511207 +++to 0.00511207
Heightened Def Con from 0.00513326 to 0.00513326
Heightened Def Con from 0.00513326 ++++to 0.00513326
Heightened Def Con from 0.00513326 ++to 0.00513326
Heightened Def Con from 0.00513326 to 0.00513326
Heightened Def Con from 0.00513326 to 0.00513326
Heightened Def Con from 0.00513326 +++++to 0.00513326
Heightened Def Con from 0.00513326 ++++++to 0.00513326
Heightened Def Con from 0.00513326 to 0.00513326
Heightened Def Con from 0.00513326 +to 0.00513326
Heightened Def Con from 0.00513326 ++to 0.00513326
Heightened Def Con from 0.00513326 ++to 0.00513326
Heightened Def Con from 0.00513326 to 0.00513326
Heightened Def Con from 0.00513326 to 0.00513326
Heightened Def Con from 0.00513326 to 0.00513326
Heightened Def Con from 0.00513326 to 0.00513326
Heightened Def Con from 0.00513326 to 0.00513326
Heightened Def Con from 0.00513326 +++++++++++++++++++++to 0.00513326
Heightened Def Con from 0.00514921 to 0.00514921
Heightened Def Con from 0.00514921 to 0.00514921
Heightened Def Con from 0.00514921 to 0.00514921
Heightened Def Con from 0.00514921 ++to 0.00514921
Heightened Def Con from 0.00517022 to 0.00517022
Heightened Def Con from 0.00517022 to 0.00517022
Heightened Def Con from 0.00517022 to 0.00517022
Heightened Def Con from 0.00517022 ++to 0.00517022
Heightened Def Con from 0.00517022 to 0.00517022
Heightened Def Con from 0.00517022 to 0.00517022
Heightened Def Con from 0.00517022 +to 0.00517022
Heightened Def Con from 0.00517022 to 0.00517022
Heightened Def Con from 0.00517022 to 0.00517022
Heightened Def Con from 0.00517022 +to 0.00517022
Heightened Def Con from 0.00517022 +++++to 0.00517022
Heightened Def Con from 0.00517022 to 0.00517022
Heightened Def Con from 0.00517022 ++to 0.00517022
Heightened Def Con from 0.00517022 +to 0.00517022
Heightened Def Con from 0.00517022 to 0.00517022
Heightened Def Con from 0.00517022 +to 0.00517022
Heightened Def Con from 0.00517022 ++++to 0.00517022
Heightened Def Con from 0.00517022 to 0.00517022
Heightened Def Con from 0.00517022 to 0.00517022
Heightened Def Con from 0.00517022 to 0.00517022
Heightened Def Con from 0.00517022 to 0.00517022
Heightened Def Con from 0.00517022 ++++++++++++++++to 0.00517022
Heightened Def Con from 0.00518615 to 0.00518615
Heightened Def Con from 0.00518615 to 0.00518615
Heightened Def Con from 0.00518615 to 0.00518615
Heightened Def Con from 0.00518615 to 0.00518615
Heightened Def Con from 0.00518615 +to 0.00518615
Heightened Def Con from 0.00518615 ++to 0.00518615
Heightened Def Con from 0.00518615 to 0.00518615
Heightened Def Con from 0.00518615 to 0.00518615
Heightened Def Con from 0.00518615 to 0.00518615
Heightened Def Con from 0.00518615 to 0.00518615
Heightened Def Con from 0.00518615 ++++to 0.00518615
Heightened Def Con from 0.00518615 +to 0.00518615
Heightened Def Con from 0.00518615 +++to 0.00518615
Heightened Def Con from 0.00518615 to 0.00518615
Heightened Def Con from 0.00518615 to 0.00518615
Heightened Def Con from 0.00518615 +to 0.00518615
Heightened Def Con from 0.00518615 to 0.00518615
Heightened Def Con from 0.00518615 to 0.00518615
Heightened Def Con from 0.00518615 to 0.00518615
Heightened Def Con from 0.00518615 to 0.00518615
Heightened Def Con from 0.00518615 to 0.00518615
Heightened Def Con from 0.00518615 +to 0.00518615
Heightened Def Con from 0.00518615 to 0.00518615
Heightened Def Con from 0.00518615 +to 0.00518615
Heightened Def Con from 0.00518615 +to 0.00518615
Heightened Def Con from 0.00518615 to 0.00518615
Heightened Def Con from 0.00518615 to 0.00518615
Heightened Def Con from 0.00518615 to 0.00518615
Heightened Def Con from 0.00518615 to 0.00518615
Heightened Def Con from 0.00518615 to 0.00518615
Heightened Def Con from 0.00518615 to 0.00518615
Heightened Def Con from 0.00518615 to 0.00518615
Heightened Def Con from 0.00518615 to 0.00518615
Heightened Def Con from 0.00518615 to 0.00518615
Heightened Def Con from 0.00518615 +to 0.00518615
Heightened Def Con from 0.00518615 to 0.00518615
Heightened Def Con from 0.00518615 ++to 0.00518615
Heightened Def Con from 0.00518615 to 0.00518615
Heightened Def Con from 0.00518615 to 0.00518615
Heightened Def Con from 0.00518615 to 0.00518615
Heightened Def Con from 0.00518615 +to 0.00518615
Heightened Def Con from 0.00518615 to 0.00518615
Heightened Def Con from 0.00518615 to 0.00518615
Heightened Def Con from 0.00518615 to 0.00518615
Heightened Def Con from 0.00518615 to 0.00518615
Heightened Def Con from 0.00518615 to 0.00518615
Heightened Def Con from 0.00518615 to 0.00518615
Heightened Def Con from 0.00518615 to 0.00518615
Heightened Def Con from 0.00518615 to 0.00518615
Heightened Def Con from 0.00518615 to 0.00518615
Heightened Def Con from 0.00518615 +to 0.00518615
Heightened Def Con from 0.00518615 to 0.00518615
Heightened Def Con from 0.00518615 ++to 0.00518615
Heightened Def Con from 0.00518615 to 0.00518615
Heightened Def Con from 0.00518615 +to 0.00518615
Heightened Def Con from 0.00518615 to 0.00518615
Heightened Def Con from 0.00518615 to 0.00518615
Heightened Def Con from 0.00518615 to 0.00518615
Heightened Def Con from 0.00518615 to 0.00518615
Heightened Def Con from 0.00518615 +to 0.00518615
Heightened Def Con from 0.00518615 to 0.00518615
Heightened Def Con from 0.00518615 to 0.00518615
Heightened Def Con from 0.00518615 to 0.00518615
Heightened Def Con from 0.00518615 to 0.00518615
Heightened Def Con from 0.00518615 to 0.00518615
Heightened Def Con from 0.00518615 to 0.00518615
Heightened Def Con from 0.00518615 to 0.00518615
Heightened Def Con from 0.00518615 to 0.00518615
Heightened Def Con from 0.00518615 to 0.00518615
Heightened Def Con from 0.00518615 to 0.00518615
Heightened Def Con from 0.00518615 to 0.00518615
Heightened Def Con from 0.00518615 +to 0.00518615
Heightened Def Con from 0.00518615 to 0.00518615
Heightened Def Con from 0.00518615 +to 0.00518615
Heightened Def Con from 0.00518615 +to 0.00518615
Heightened Def Con from 0.00518615 to 0.00518615
Heightened Def Con from 0.00518615 to 0.00518615
Heightened Def Con from 0.00518615 to 0.00518615
Heightened Def Con from 0.00518615 ++to 0.00518615
Heightened Def Con from 0.00518615 to 0.00518615
Heightened Def Con from 0.00518615 to 0.00518615
Heightened Def Con from 0.00518615 to 0.00518615
Heightened Def Con from 0.00518615 +to 0.00518615
Heightened Def Con from 0.00518615 to 0.00518615
Heightened Def Con from 0.00518615 to 0.00518615
Heightened Def Con from 0.00518615 to 0.00518615
Heightened Def Con from 0.00518615 to 0.00518615
Heightened Def Con from 0.00518615 to 0.00518615
Heightened Def Con from 0.00518615 +to 0.00518615
Heightened Def Con from 0.00518615 to 0.00518615
Heightened Def Con from 0.00518615 ++to 0.00518615
Heightened Def Con from 0.00518615 to 0.00518615
Heightened Def Con from 0.00518615 to 0.00518615
Heightened Def Con from 0.00518615 to 0.00518615
Heightened Def Con from 0.00518615 +to 0.00518615
Heightened Def Con from 0.00518615 to 0.00518615
Heightened Def Con from 0.00518615 to 0.00518615
Heightened Def Con from 0.00518615 to 0.00518615
Heightened Def Con from 0.00518615 +to 0.00518615
Heightened Def Con from 0.00518615 to 0.00518615
Heightened Def Con from 0.00518615 to 0.00518615
Heightened Def Con from 0.00518615 to 0.00518615
Heightened Def Con from 0.00518615 +to 0.00518615
Heightened Def Con from 0.00518615 to 0.00518615
Heightened Def Con from 0.00518615 to 0.00518615
Heightened Def Con from 0.00518615 ++to 0.00518615
Heightened Def Con from 0.00518615 ++to 0.00518615
Heightened Def Con from 0.00518615 to 0.00518615
Heightened Def Con from 0.00518615 to 0.00518615
Heightened Def Con from 0.00518615 +to 0.00518615
Heightened Def Con from 0.00518615 to 0.00518615
Heightened Def Con from 0.00518615 +to 0.00518615
Heightened Def Con from 0.00518615 to 0.00518615
Heightened Def Con from 0.00518615 to 0.00518615
Heightened Def Con from 0.00518615 to 0.00518615
Heightened Def Con from 0.00518615 to 0.00518615
Heightened Def Con from 0.00518615 to 0.00518615
Heightened Def Con from 0.00518615 ++to 0.00518615
Heightened Def Con from 0.00518615 to 0.00518615
Heightened Def Con from 0.00518615 to 0.00518615
Heightened Def Con from 0.00518615 +to 0.00518615
Heightened Def Con from 0.00518615 to 0.00518615
Heightened Def Con from 0.00518615 to 0.00518615
Heightened Def Con from 0.00518615 +++to 0.00518615
Heightened Def Con from 0.00518615 to 0.00518615
Heightened Def Con from 0.00518615 ++to 0.00518615
Heightened Def Con from 0.00518615 to 0.00518615
Heightened Def Con from 0.00518615 to 0.00518615
Heightened Def Con from 0.00518615 +to 0.00518615
Heightened Def Con from 0.00518615 +to 0.00518615
Heightened Def Con from 0.00518615 to 0.00518615
Heightened Def Con from 0.00518615 to 0.00518615
Heightened Def Con from 0.00518615 to 0.00518615
Heightened Def Con from 0.00518615 to 0.00518615
Heightened Def Con from 0.00518615 to 0.00518615
Heightened Def Con from 0.00518615 ++to 0.00518615
Heightened Def Con from 0.00518615 +to 0.00518615
Heightened Def Con from 0.00518615 to 0.00518615
Heightened Def Con from 0.00518615 +++++to 0.00518615
Heightened Def Con from 0.00518615 to 0.00518615
Heightened Def Con from 0.00518615 to 0.00518615
Heightened Def Con from 0.00518615 to 0.00518615
Heightened Def Con from 0.00518615 +to 0.00518615
Heightened Def Con from 0.00518615 to 0.00518615
Heightened Def Con from 0.00518615 to 0.00518615
Heightened Def Con from 0.00518615 to 0.00518615
Heightened Def Con from 0.00518615 to 0.00518615
Heightened Def Con from 0.00518615 ++to 0.00518615
Heightened Def Con from 0.00518615 to 0.00518615
Heightened Def Con from 0.00518615 +++to 0.00518615
Heightened Def Con from 0.00518615 to 0.00518615
Heightened Def Con from 0.00518615 +to 0.00518615
Heightened Def Con from 0.00518615 to 0.00518615
Heightened Def Con from 0.00518615 to 0.00518615
Heightened Def Con from 0.00518615 to 0.00518615
Heightened Def Con from 0.00518615 to 0.00518615
Heightened Def Con from 0.00518615 to 0.00518615
Heightened Def Con from 0.00518615 +to 0.00518615
Heightened Def Con from 0.00518615 to 0.00518615
Heightened Def Con from 0.00520717 +to 0.00520717
Heightened Def Con from 0.00520717 to 0.00520717
Heightened Def Con from 0.00520717 to 0.00520717
Heightened Def Con from 0.00520717 to 0.00520717
Heightened Def Con from 0.00520717 to 0.00520717
Heightened Def Con from 0.00524411 to 0.00524411
Heightened Def Con from 0.00524411 ++to 0.00524411
Heightened Def Con from 0.00524411 +to 0.00524411
Heightened Def Con from 0.00524411 +to 0.00524411
Heightened Def Con from 0.00524411 to 0.00524411
Heightened Def Con from 0.00524411 to 0.00524411
Heightened Def Con from 0.00524411 to 0.00524411
Heightened Def Con from 0.00524411 to 0.00524411
Heightened Def Con from 0.00524411 ++to 0.00524411
Heightened Def Con from 0.00524411 +to 0.00524411
Heightened Def Con from 0.00524411 +to 0.00524411
Heightened Def Con from 0.00524411 to 0.00524411
Heightened Def Con from 0.00524411 to 0.00524411
Heightened Def Con from 0.00524411 +to 0.00524411
Heightened Def Con from 0.00524411 to 0.00524411
Heightened Def Con from 0.00524411 to 0.00524411
Heightened Def Con from 0.00524411 +to 0.00524411
Heightened Def Con from 0.00524411 to 0.00524411
Heightened Def Con from 0.00524411 to 0.00524411
Heightened Def Con from 0.00524411 to 0.00524411
Heightened Def Con from 0.00524411 +to 0.00524411
Heightened Def Con from 0.00524411 to 0.00524411
Heightened Def Con from 0.00524411 to 0.00524411
Heightened Def Con from 0.00524411 +to 0.00524411
Heightened Def Con from 0.00526005 +to 0.00526005
Heightened Def Con from 0.00526005 ++to 0.00526005
Heightened Def Con from 0.00526005 to 0.00526005
Heightened Def Con from 0.00526005 to 0.00526005
Heightened Def Con from 0.00526005 ++to 0.00526005
Heightened Def Con from 0.00526005 to 0.00526005
Heightened Def Con from 0.00526005 to 0.00526005
Heightened Def Con from 0.00526005 +to 0.00526005
Heightened Def Con from 0.00526005 +to 0.00526005
Heightened Def Con from 0.00526005 to 0.00526005
Heightened Def Con from 0.00526005 to 0.00526005
Heightened Def Con from 0.00526005 +to 0.00526005
Heightened Def Con from 0.00526005 to 0.00526005
Heightened Def Con from 0.00526005 to 0.00526005
Heightened Def Con from 0.00526005 ++to 0.00526005
Heightened Def Con from 0.00526005 to 0.00526005
Heightened Def Con from 0.00526005 to 0.00526005
Heightened Def Con from 0.00526005 to 0.00526005
Heightened Def Con from 0.00526005 to 0.00526005
Heightened Def Con from 0.00526005 to 0.00526005
Heightened Def Con from 0.00526005 to 0.00526005
Heightened Def Con from 0.00526005 +to 0.00526005
Heightened Def Con from 0.00526005 to 0.00526005
Heightened Def Con from 0.00526005 to 0.00526005
Heightened Def Con from 0.00526005 to 0.00526005
Heightened Def Con from 0.00526005 to 0.00526005
Heightened Def Con from 0.00526005 to 0.00526005
Heightened Def Con from 0.00526005 to 0.00526005
Heightened Def Con from 0.00526005 +to 0.00526005
Heightened Def Con from 0.00526005 +to 0.00526005
Heightened Def Con from 0.00526005 +to 0.00526005
Heightened Def Con from 0.00526005 to 0.00526005
Heightened Def Con from 0.00526005 +to 0.00526005
Heightened Def Con from 0.00526005 to 0.00526005
Heightened Def Con from 0.00526005 to 0.00526005
Heightened Def Con from 0.00526005 +to 0.00526005
Heightened Def Con from 0.00526005 to 0.00526005
Heightened Def Con from 0.00526005 to 0.00526005
Heightened Def Con from 0.00526005 to 0.00526005
Heightened Def Con from 0.00526005 to 0.00526005
Heightened Def Con from 0.00526005 +to 0.00526005
Heightened Def Con from 0.00526005 to 0.00526005
Heightened Def Con from 0.00526005 to 0.00526005
Heightened Def Con from 0.00526005 to 0.00526005
Heightened Def Con from 0.00526005 +to 0.00526005
Heightened Def Con from 0.00526005 to 0.00526005
Heightened Def Con from 0.00526005 to 0.00526005
Heightened Def Con from 0.00526005 +to 0.00526005
Heightened Def Con from 0.00526005 to 0.00526005
Heightened Def Con from 0.00526005 to 0.00526005
Heightened Def Con from 0.00526005 to 0.00526005
Heightened Def Con from 0.00526005 to 0.00526005
Heightened Def Con from 0.00526005 +to 0.00526005
Heightened Def Con from 0.00526005 to 0.00526005
Heightened Def Con from 0.00526005 to 0.00526005
Heightened Def Con from 0.00526005 to 0.00526005
Heightened Def Con from 0.00526005 to 0.00526005
Heightened Def Con from 0.00526005 to 0.00526005
Heightened Def Con from 0.00526005 +to 0.00526005
Heightened Def Con from 0.00526005 to 0.00526005
Heightened Def Con from 0.00526005 to 0.00526005
Heightened Def Con from 0.00526005 to 0.00526005
Heightened Def Con from 0.00526005 to 0.00526005
Heightened Def Con from 0.00526005 to 0.00526005
Heightened Def Con from 0.00526005 +to 0.00526005
Heightened Def Con from 0.00526005 to 0.00526005
Heightened Def Con from 0.00526005 to 0.00526005
Heightened Def Con from 0.00526005 to 0.00526005
Heightened Def Con from 0.00526005 to 0.00526005
Heightened Def Con from 0.00526005 to 0.00526005
Heightened Def Con from 0.00526005 to 0.00526005
Heightened Def Con from 0.00526005 +to 0.00526005
Heightened Def Con from 0.00526005 ++to 0.00526005
Heightened Def Con from 0.00526005 to 0.00526005
Heightened Def Con from 0.00526005 to 0.00526005
Heightened Def Con from 0.00526005 to 0.00526005
Heightened Def Con from 0.00526005 +to 0.00526005
Heightened Def Con from 0.00526005 to 0.00526005
Heightened Def Con from 0.00526005 to 0.00526005
Heightened Def Con from 0.00526005 to 0.00526005
Heightened Def Con from 0.00526005 to 0.00526005
Heightened Def Con from 0.00526005 to 0.00526005
Heightened Def Con from 0.00526005 to 0.00526005
Heightened Def Con from 0.00526005 ++to 0.00526005
Heightened Def Con from 0.00526005 to 0.00526005
Heightened Def Con from 0.00526005 to 0.00526005
Heightened Def Con from 0.00526005 +to 0.00526005
Heightened Def Con from 0.00526005 to 0.00526005
Heightened Def Con from 0.00526005 ++to 0.00526005
Heightened Def Con from 0.00526005 +to 0.00526005
Heightened Def Con from 0.00526005 to 0.00526005
Heightened Def Con from 0.00526005 +++to 0.00526005
Heightened Def Con from 0.00526005 to 0.00526005
Heightened Def Con from 0.00526005 to 0.00526005
Heightened Def Con from 0.00526005 +to 0.00526005
Heightened Def Con from 0.00526005 to 0.00526005
Heightened Def Con from 0.00526005 +++to 0.00526005
Heightened Def Con from 0.00526005 +to 0.00526005
Heightened Def Con from 0.00526005 to 0.00526005
Heightened Def Con from 0.00529701 +to 0.00529701
Heightened Def Con from 0.00529701 to 0.00529701
Heightened Def Con from 0.00529701 to 0.00529701
Heightened Def Con from 0.00529701 +to 0.00529701
Heightened Def Con from 0.00529701 +to 0.00529701
Heightened Def Con from 0.00529701 to 0.00529701
Heightened Def Con from 0.00529701 to 0.00529701
Heightened Def Con from 0.00529701 to 0.00529701
Heightened Def Con from 0.00529701 to 0.00529701
Heightened Def Con from 0.00529701 to 0.00529701
Heightened Def Con from 0.00529701 +to 0.00529701
Heightened Def Con from 0.00529701 to 0.00529701
Heightened Def Con from 0.00529701 to 0.00529701
Heightened Def Con from 0.00529701 to 0.00529701
Heightened Def Con from 0.00529701 +to 0.00529701
Heightened Def Con from 0.00529701 ++to 0.00529701
Heightened Def Con from 0.00529701 +to 0.00529701
Heightened Def Con from 0.00529701 to 0.00529701
Heightened Def Con from 0.00529701 to 0.00529701
Heightened Def Con from 0.00529701 +to 0.00529701
Heightened Def Con from 0.00529701 to 0.00529701
Heightened Def Con from 0.00529701 +to 0.00529701
Heightened Def Con from 0.00529701 to 0.00529701
Heightened Def Con from 0.00529701 +to 0.00529701
Heightened Def Con from 0.00529701 +to 0.00529701
Heightened Def Con from 0.00529701 to 0.00529701
Heightened Def Con from 0.00529701 to 0.00529701
Heightened Def Con from 0.00529701 to 0.00529701
Heightened Def Con from 0.00529701 ++to 0.00529701
Heightened Def Con from 0.00529701 to 0.00529701
Heightened Def Con from 0.00529701 to 0.00529701
Heightened Def Con from 0.00529701 to 0.00529701
Heightened Def Con from 0.00529701 to 0.00529701
Heightened Def Con from 0.00529701 to 0.00529701
Heightened Def Con from 0.00529701 to 0.00529701
Heightened Def Con from 0.00529701 +++++++++++++++to 0.00529701
Heightened Def Con from 0.00531819 to 0.00531819
Heightened Def Con from 0.00531819 ++to 0.00531819
Heightened Def Con from 0.00531819 ++to 0.00531819
Heightened Def Con from 0.00531819 +++to 0.00531819
Heightened Def Con from 0.00531819 ++++to 0.00531819
Heightened Def Con from 0.00531819 +to 0.00531819
Heightened Def Con from 0.00531819 to 0.00531819
Heightened Def Con from 0.00531819 to 0.00531819
Heightened Def Con from 0.00531819 to 0.00531819
Heightened Def Con from 0.00531819 to 0.00531819
Heightened Def Con from 0.00531819 to 0.00531819
Heightened Def Con from 0.00531819 to 0.00531819
Heightened Def Con from 0.00531819 to 0.00531819
Heightened Def Con from 0.00531819 to 0.00531819
Heightened Def Con from 0.00531819 +to 0.00531819
Heightened Def Con from 0.00531819 +to 0.00531819
Heightened Def Con from 0.00531819 to 0.00531819
Heightened Def Con from 0.00531819 to 0.00531819
Heightened Def Con from 0.00531819 +to 0.00531819
Heightened Def Con from 0.00531819 ++to 0.00531819
Heightened Def Con from 0.00531819 to 0.00531819
Heightened Def Con from 0.00531819 to 0.00531819
Heightened Def Con from 0.00531819 to 0.00531819
Heightened Def Con from 0.00531819 +++++++++++++++++++++to 0.0053182
Heightened Def Con from 0.00533415 +to 0.00533415
Heightened Def Con from 0.00533415 +to 0.00533415
Heightened Def Con from 0.00533415 to 0.00533415
Heightened Def Con from 0.00533415 to 0.00533415
Heightened Def Con from 0.00533415 to 0.00533415
Heightened Def Con from 0.00533415 to 0.00533415
Heightened Def Con from 0.00535516 to 0.00535516
Heightened Def Con from 0.00535516 +to 0.00535516
Heightened Def Con from 0.00535516 to 0.00535516
Heightened Def Con from 0.00535516 to 0.00535516
Heightened Def Con from 0.00535516 to 0.00535516
Heightened Def Con from 0.00535516 ++to 0.00535516
Heightened Def Con from 0.00535516 ++to 0.00535516
Heightened Def Con from 0.00535516 ++++to 0.00535516
Heightened Def Con from 0.00535516 to 0.00535516
Heightened Def Con from 0.00535516 to 0.00535516
Heightened Def Con from 0.00535516 to 0.00535516
Heightened Def Con from 0.00535516 to 0.00535516
Heightened Def Con from 0.00535516 +++to 0.00535516
Heightened Def Con from 0.00535516 to 0.00535516
Heightened Def Con from 0.00535516 +to 0.00535516
Heightened Def Con from 0.00535516 to 0.00535516
Heightened Def Con from 0.00535516 ++++++to 0.00535516
Heightened Def Con from 0.00537109 to 0.00537109
Heightened Def Con from 0.00537109 to 0.00537109
Heightened Def Con from 0.00537109 to 0.00537109
Heightened Def Con from 0.00537109 ++++++++++++++++to 0.00537109
Heightened Def Con from 0.00539228 to 0.00539228
Heightened Def Con from 0.00539228 +++++to 0.00539228
Heightened Def Con from 0.00539228 to 0.00539228
Heightened Def Con from 0.00539228 to 0.00539228
Heightened Def Con from 0.00539228 to 0.00539228
Heightened Def Con from 0.00539228 +to 0.00539228
Heightened Def Con from 0.00539228 to 0.00539228
Heightened Def Con from 0.00539228 +to 0.00539228
Heightened Def Con from 0.00539228 +++++++++++++++++to 0.00539228
Heightened Def Con from 0.00540823 to 0.00540823
Heightened Def Con from 0.00540823 ++++to 0.00540823
Heightened Def Con from 0.00540823 to 0.00540823
Heightened Def Con from 0.00540823 to 0.00540823
Heightened Def Con from 0.00540823 ++to 0.00540823
Heightened Def Con from 0.00540823 +to 0.00540823
Heightened Def Con from 0.00540823 to 0.00540823
Heightened Def Con from 0.00540823 to 0.00540823
Heightened Def Con from 0.00540823 to 0.00540823
Heightened Def Con from 0.00540823 to 0.00540823
Heightened Def Con from 0.00540823 to 0.00540823
Heightened Def Con from 0.00540823 to 0.00540823
Heightened Def Con from 0.00540823 ++to 0.00540823
Heightened Def Con from 0.00540823 to 0.00540823
Heightened Def Con from 0.00540823 +++to 0.00540823
Heightened Def Con from 0.00540823 to 0.00540823
Heightened Def Con from 0.00542942 to 0.00542942
Heightened Def Con from 0.00542942 +to 0.00542942
Heightened Def Con from 0.00542942 to 0.00542942
Heightened Def Con from 0.00542942 to 0.00542942
Heightened Def Con from 0.00542942 +to 0.00542942
Heightened Def Con from 0.00542942 to 0.00542942
Heightened Def Con from 0.00542942 to 0.00542942
Heightened Def Con from 0.00542942 +++++++to 0.00542942
Heightened Def Con from 0.00544537 to 0.00544537
Heightened Def Con from 0.00544537 to 0.00544537
Heightened Def Con from 0.00544537 +to 0.00544537
Heightened Def Con from 0.00544537 +to 0.00544537
Heightened Def Con from 0.00544537 to 0.00544537
Heightened Def Con from 0.00544537 to 0.00544537
Heightened Def Con from 0.00544537 to 0.00544537
Heightened Def Con from 0.00544537 to 0.00544537
Heightened Def Con from 0.00544537 to 0.00544537
Heightened Def Con from 0.00544537 +++++++++++++++++++++to 0.00544537
Heightened Def Con from 0.00546656 +++to 0.00546656
Heightened Def Con from 0.00546656 +to 0.00546656
Heightened Def Con from 0.00546656 to 0.00546656
Heightened Def Con from 0.00546656 to 0.00546656
Heightened Def Con from 0.00546656 to 0.00546656
Heightened Def Con from 0.00546656 to 0.00546656
Heightened Def Con from 0.00546656 ++++to 0.00546656
Heightened Def Con from 0.00546656 to 0.00546656
Heightened Def Con from 0.00546656 ++to 0.00546656
Heightened Def Con from 0.00546656 to 0.00546656
Heightened Def Con from 0.00546656 +to 0.00546656
Heightened Def Con from 0.00546656 to 0.00546656
Heightened Def Con from 0.00546656 +to 0.00546656
Heightened Def Con from 0.00546656 to 0.00546656
Heightened Def Con from 0.00546656 +to 0.00546656
Heightened Def Con from 0.00546656 to 0.00546656
Heightened Def Con from 0.00546656 ++++to 0.00546656
Heightened Def Con from 0.00546656 ++to 0.00546656
Heightened Def Con from 0.00546656 to 0.00546656
Heightened Def Con from 0.00546656 ++to 0.00546656
Heightened Def Con from 0.00546656 +++to 0.00546656
Heightened Def Con from 0.00546656 to 0.00546656
Heightened Def Con from 0.00546656 +to 0.00546656
Heightened Def Con from 0.00546656 to 0.00546656
Heightened Def Con from 0.00546656 +++++++++++++++++++++to 0.00546656
Heightened Def Con from 0.00548251 to 0.00548251
Heightened Def Con from 0.00548251 +to 0.00548251
Heightened Def Con from 0.00548251 to 0.00548251
Heightened Def Con from 0.00548251 to 0.00548251
Heightened Def Con from 0.00548251 +to 0.00548251
Heightened Def Con from 0.00548251 to 0.00548251
Heightened Def Con from 0.00548251 to 0.00548251
Heightened Def Con from 0.00548251 to 0.00548251
Heightened Def Con from 0.00548251 +to 0.00548251
Heightened Def Con from 0.00548251 to 0.00548251
Heightened Def Con from 0.00548251 +to 0.00548251
Heightened Def Con from 0.00548251 +to 0.00548251
Heightened Def Con from 0.00548251 +to 0.00548251
Heightened Def Con from 0.00548251 +to 0.00548251
Heightened Def Con from 0.00548251 +++++++++++++++++to 0.00548251
Heightened Def Con from 0.0055037 to 0.0055037
Heightened Def Con from 0.0055037 to 0.0055037
Heightened Def Con from 0.0055037 to 0.0055037
Heightened Def Con from 0.0055037 ++to 0.0055037
Heightened Def Con from 0.0055037 +to 0.0055037
Heightened Def Con from 0.0055037 +to 0.0055037
Heightened Def Con from 0.0055037 ++++to 0.0055037
Heightened Def Con from 0.0055037 ++to 0.0055037
Heightened Def Con from 0.0055037 to 0.0055037
Heightened Def Con from 0.0055037 to 0.0055037
Heightened Def Con from 0.0055037 to 0.0055037
Heightened Def Con from 0.0055037 +to 0.0055037
Heightened Def Con from 0.0055037 +to 0.0055037
Heightened Def Con from 0.0055037 to 0.0055037
Heightened Def Con from 0.0055037 to 0.0055037
Heightened Def Con from 0.0055037 +to 0.0055037
Heightened Def Con from 0.0055037 ++to 0.0055037
Heightened Def Con from 0.0055037 to 0.0055037
Heightened Def Con from 0.0055037 ++to 0.0055037
Heightened Def Con from 0.0055037 to 0.0055037
Heightened Def Con from 0.0055037 to 0.0055037
Heightened Def Con from 0.0055037 to 0.0055037
Heightened Def Con from 0.0055037 +to 0.0055037
Heightened Def Con from 0.0055037 +to 0.0055037
Heightened Def Con from 0.0055037 to 0.0055037
Heightened Def Con from 0.0055037 to 0.0055037
Heightened Def Con from 0.0055037 +to 0.0055037
Heightened Def Con from 0.0055037 to 0.0055037
Heightened Def Con from 0.0055037 ++++to 0.0055037
Heightened Def Con from 0.0055037 to 0.0055037
Heightened Def Con from 0.0055037 to 0.0055037
Heightened Def Con from 0.0055037 to 0.0055037
Heightened Def Con from 0.0055037 to 0.0055037
Heightened Def Con from 0.0055037 +to 0.0055037
Heightened Def Con from 0.0055037 to 0.0055037
Heightened Def Con from 0.0055037 +to 0.0055037
Heightened Def Con from 0.0055037 +++++to 0.0055037
Heightened Def Con from 0.0055037 to 0.0055037
Heightened Def Con from 0.0055037 to 0.0055037
Heightened Def Con from 0.0055037 +++++++++++to 0.0055037
Heightened Def Con from 0.00551965 to 0.00551965
Heightened Def Con from 0.00551965 to 0.00551965
Heightened Def Con from 0.00551965 to 0.00551965
Heightened Def Con from 0.00551965 ++++++to 0.00551965
Heightened Def Con from 0.00554084 to 0.00554084
Heightened Def Con from 0.00554084 to 0.00554084
Heightened Def Con from 0.00554084 to 0.00554084
Heightened Def Con from 0.00554084 to 0.00554084
Heightened Def Con from 0.00554084 to 0.00554084
Heightened Def Con from 0.00555677 to 0.00555677
Heightened Def Con from 0.00555677 to 0.00555677
Heightened Def Con from 0.00555677 to 0.00555677
Heightened Def Con from 0.00555677 to 0.00555677
Heightened Def Con from 0.00555677 to 0.00555677
Heightened Def Con from 0.00555677 to 0.00555677
Heightened Def Con from 0.00555677 to 0.00555677
Heightened Def Con from 0.00555677 to 0.00555677
Heightened Def Con from 0.00555677 to 0.00555677
Heightened Def Con from 0.00555677 to 0.00555677
Heightened Def Con from 0.00555677 to 0.00555677
Heightened Def Con from 0.00555677 to 0.00555677
Heightened Def Con from 0.00555677 ++to 0.00555677
Heightened Def Con from 0.00555677 to 0.00555677
Heightened Def Con from 0.00555677 to 0.00555677
Heightened Def Con from 0.00555677 to 0.00555677
Heightened Def Con from 0.00555677 to 0.00555677
Heightened Def Con from 0.00555677 to 0.00555677
Heightened Def Con from 0.00555677 to 0.00555677
Heightened Def Con from 0.00555677 to 0.00555677
Heightened Def Con from 0.00555677 to 0.00555677
Heightened Def Con from 0.00555677 to 0.00555677
Heightened Def Con from 0.00555677 +to 0.00555677
Heightened Def Con from 0.00555677 to 0.00555677
Heightened Def Con from 0.00555677 ++++to 0.00555677
Heightened Def Con from 0.00555677 to 0.00555677
Heightened Def Con from 0.00555677 +to 0.00555677
Heightened Def Con from 0.00555677 to 0.00555677
Heightened Def Con from 0.00555677 to 0.00555677
Heightened Def Con from 0.00555677 to 0.00555677
Heightened Def Con from 0.00555677 to 0.00555677
Heightened Def Con from 0.00555677 to 0.00555677
Heightened Def Con from 0.00555677 to 0.00555677
Heightened Def Con from 0.00555677 to 0.00555677
Heightened Def Con from 0.00555677 +to 0.00555677
Heightened Def Con from 0.00555677 to 0.00555677
Heightened Def Con from 0.00555677 +to 0.00555677
Heightened Def Con from 0.00555677 to 0.00555677
Heightened Def Con from 0.00555677 to 0.00555677
Heightened Def Con from 0.00555677 to 0.00555677
Heightened Def Con from 0.00555677 to 0.00555677
Heightened Def Con from 0.00555677 ++to 0.00555677
Heightened Def Con from 0.00555677 to 0.00555677
Heightened Def Con from 0.00555677 to 0.00555677
Heightened Def Con from 0.00555677 to 0.00555677
Heightened Def Con from 0.00555677 +to 0.00555677
Heightened Def Con from 0.00555677 ++++to 0.00555677
Heightened Def Con from 0.00555677 to 0.00555677
Heightened Def Con from 0.00555677 to 0.00555677
Heightened Def Con from 0.00555677 +to 0.00555677
Heightened Def Con from 0.00555677 to 0.00555677
Heightened Def Con from 0.00555677 to 0.00555677
Heightened Def Con from 0.00555677 to 0.00555677
Heightened Def Con from 0.00555677 to 0.00555677
Heightened Def Con from 0.00555677 to 0.00555677
Heightened Def Con from 0.00555677 +to 0.00555677
Heightened Def Con from 0.00555677 to 0.00555677
Heightened Def Con from 0.00555677 +to 0.00555677
Heightened Def Con from 0.00555677 +to 0.00555677
Heightened Def Con from 0.00555677 +to 0.00555677
Heightened Def Con from 0.00555677 to 0.00555677
Heightened Def Con from 0.00555677 to 0.00555677
Heightened Def Con from 0.00555677 to 0.00555677
Heightened Def Con from 0.00555677 to 0.00555677
Heightened Def Con from 0.00555677 to 0.00555677
Heightened Def Con from 0.00555677 ++to 0.00555677
Heightened Def Con from 0.00555677 to 0.00555677
Heightened Def Con from 0.00555677 to 0.00555677
Heightened Def Con from 0.00555677 to 0.00555677
Heightened Def Con from 0.00555677 to 0.00555677
Heightened Def Con from 0.00555677 to 0.00555677
Heightened Def Con from 0.00555677 to 0.00555677
Heightened Def Con from 0.00555677 to 0.00555677
Heightened Def Con from 0.00555677 to 0.00555677
Heightened Def Con from 0.00555677 to 0.00555677
Heightened Def Con from 0.00555677 to 0.00555677
Heightened Def Con from 0.00555677 to 0.00555677
Heightened Def Con from 0.00555677 to 0.00555677
Heightened Def Con from 0.00555677 to 0.00555677
Heightened Def Con from 0.00555677 to 0.00555677
Heightened Def Con from 0.00555677 to 0.00555677
Heightened Def Con from 0.00555677 to 0.00555677
Heightened Def Con from 0.00555677 to 0.00555677
Heightened Def Con from 0.00555677 to 0.00555677
Heightened Def Con from 0.00555677 to 0.00555677
Heightened Def Con from 0.00555677 to 0.00555677
Heightened Def Con from 0.00555677 to 0.00555677
Heightened Def Con from 0.00555677 to 0.00555677
Heightened Def Con from 0.00555677 to 0.00555677
Heightened Def Con from 0.00555677 +to 0.00555677
Heightened Def Con from 0.00555677 to 0.00555677
Heightened Def Con from 0.00555677 to 0.00555677
Heightened Def Con from 0.00555677 to 0.00555677
Heightened Def Con from 0.00555677 to 0.00555677
Heightened Def Con from 0.00555677 to 0.00555677
Heightened Def Con from 0.00555677 to 0.00555677
Heightened Def Con from 0.00555677 +to 0.00555677
Heightened Def Con from 0.00555677 to 0.00555677
Heightened Def Con from 0.00555677 ++to 0.00555677
Heightened Def Con from 0.00555677 to 0.00555677
Heightened Def Con from 0.00555677 to 0.00555677
Heightened Def Con from 0.00555677 to 0.00555677
Heightened Def Con from 0.00555677 +to 0.00555677
Heightened Def Con from 0.00555677 to 0.00555677
Heightened Def Con from 0.00555677 to 0.00555677
Heightened Def Con from 0.00555677 to 0.00555677
Heightened Def Con from 0.00555677 to 0.00555677
Heightened Def Con from 0.00555677 +to 0.00555677
Heightened Def Con from 0.00555677 to 0.00555677
Heightened Def Con from 0.00555677 to 0.00555677
Heightened Def Con from 0.00555677 +to 0.00555677
Heightened Def Con from 0.00555677 +to 0.00555677
Heightened Def Con from 0.00555677 to 0.00555677
Heightened Def Con from 0.00555677 to 0.00555677
Heightened Def Con from 0.00555677 to 0.00555677
Heightened Def Con from 0.00555677 +to 0.00555677
Heightened Def Con from 0.00555677 to 0.00555677
Heightened Def Con from 0.00555677 to 0.00555677
Heightened Def Con from 0.00555677 to 0.00555677
Heightened Def Con from 0.00555677 to 0.00555677
Heightened Def Con from 0.00555677 to 0.00555677
Heightened Def Con from 0.00555677 to 0.00555677
Heightened Def Con from 0.00555677 to 0.00555677
Heightened Def Con from 0.00555677 ++to 0.00555677
Heightened Def Con from 0.00555677 to 0.00555677
Heightened Def Con from 0.00555677 to 0.00555677
Heightened Def Con from 0.00555677 to 0.00555677
Heightened Def Con from 0.00555677 to 0.00555677
Heightened Def Con from 0.00555677 +to 0.00555677
Heightened Def Con from 0.00555677 ++to 0.00555677
Heightened Def Con from 0.00555677 to 0.00555677
Heightened Def Con from 0.00555677 +to 0.00555677
Heightened Def Con from 0.00555677 to 0.00555677
Heightened Def Con from 0.00555677 to 0.00555677
Heightened Def Con from 0.00555677 to 0.00555677
Heightened Def Con from 0.00555677 to 0.00555677
Heightened Def Con from 0.00555677 to 0.00555677
Heightened Def Con from 0.00555677 to 0.00555677
Heightened Def Con from 0.00555677 to 0.00555677
Heightened Def Con from 0.00555677 to 0.00555677
Heightened Def Con from 0.00555677 to 0.00555677
Heightened Def Con from 0.00555677 to 0.00555677
Heightened Def Con from 0.00555677 +to 0.00555677
Heightened Def Con from 0.00555677 to 0.00555677
Heightened Def Con from 0.00555677 to 0.00555677
Heightened Def Con from 0.00555677 to 0.00555677
Heightened Def Con from 0.00555677 to 0.00555677
Heightened Def Con from 0.00555677 to 0.00555677
Heightened Def Con from 0.00555677 +to 0.00555677
Heightened Def Con from 0.00555677 to 0.00555677
Heightened Def Con from 0.00555677 to 0.00555677
Heightened Def Con from 0.00555677 +to 0.00555677
Heightened Def Con from 0.00555677 to 0.00555677
Heightened Def Con from 0.00555677 to 0.00555677
Heightened Def Con from 0.00555677 to 0.00555677
Heightened Def Con from 0.00555677 to 0.00555677
Heightened Def Con from 0.00555677 to 0.00555677
Heightened Def Con from 0.00555677 to 0.00555677
Heightened Def Con from 0.00555677 to 0.00555677
Heightened Def Con from 0.00555677 ++to 0.00555677
Heightened Def Con from 0.00555677 to 0.00555677
Heightened Def Con from 0.00555677 to 0.00555677
Heightened Def Con from 0.00555677 to 0.00555677
Heightened Def Con from 0.00555677 to 0.00555677
Heightened Def Con from 0.00555677 ++to 0.00555677
Heightened Def Con from 0.00555677 to 0.00555677
Heightened Def Con from 0.00555677 to 0.00555677
Heightened Def Con from 0.00555677 to 0.00555677
Heightened Def Con from 0.00555677 to 0.00555677
Heightened Def Con from 0.00555677 to 0.00555677
Heightened Def Con from 0.00555677 to 0.00555677
Heightened Def Con from 0.00555677 +to 0.00555677
Heightened Def Con from 0.00555677 to 0.00555677
Heightened Def Con from 0.00555677 to 0.00555677
Heightened Def Con from 0.00555677 to 0.00555677
Heightened Def Con from 0.00555677 ++to 0.00555677
Heightened Def Con from 0.00557796 to 0.00557796
Heightened Def Con from 0.00557796 ++to 0.00557796
Heightened Def Con from 0.00557796 ++to 0.00557796
Heightened Def Con from 0.00557796 to 0.00557796
Heightened Def Con from 0.00557796 ++to 0.00557796
Heightened Def Con from 0.00557796 to 0.00557796
Heightened Def Con from 0.00557796 ++to 0.00557796
Heightened Def Con from 0.00557796 ++to 0.00557796
Heightened Def Con from 0.00557796 ++to 0.00557796
Heightened Def Con from 0.00557796 to 0.00557796
Heightened Def Con from 0.00557796 to 0.00557796
Heightened Def Con from 0.00557796 to 0.00557796
Heightened Def Con from 0.00557796 ++to 0.00557796
Heightened Def Con from 0.00557796 ++to 0.00557796
Heightened Def Con from 0.00557796 to 0.00557796
Heightened Def Con from 0.00557796 to 0.00557796
Heightened Def Con from 0.00557796 +to 0.00557796
Heightened Def Con from 0.00557796 to 0.00557796
Heightened Def Con from 0.00557796 to 0.00557796
Heightened Def Con from 0.00557796 ++to 0.00557796
Heightened Def Con from 0.00557796 ++++++to 0.00557796
Heightened Def Con from 0.00557796 +to 0.00557796
Heightened Def Con from 0.00557796 +to 0.00557796
Heightened Def Con from 0.00557796 +to 0.00557796
Heightened Def Con from 0.00557796 +++++to 0.00557796
Heightened Def Con from 0.00557796 +++to 0.00557796
Heightened Def Con from 0.00557796 ++to 0.00557796
Heightened Def Con from 0.00557796 to 0.00557796
Heightened Def Con from 0.00557796 +to 0.00557796
Heightened Def Con from 0.00557796 +++to 0.00557796
Heightened Def Con from 0.00557796 to 0.00557796
Heightened Def Con from 0.00557796 +++to 0.00557796
Heightened Def Con from 0.00557796 to 0.00557796
Heightened Def Con from 0.00557796 to 0.00557796
Heightened Def Con from 0.00557796 +to 0.00557796
Heightened Def Con from 0.00557796 to 0.00557796
Heightened Def Con from 0.00557796 to 0.00557796
Heightened Def Con from 0.00557796 to 0.00557796
Heightened Def Con from 0.00557796 +to 0.00557796
Heightened Def Con from 0.00557796 +to 0.00557796
Heightened Def Con from 0.00557796 +to 0.00557796
Heightened Def Con from 0.00557796 ++++to 0.00557796
Heightened Def Con from 0.00557796 to 0.00557796
Heightened Def Con from 0.00557796 to 0.00557796
Heightened Def Con from 0.00557796 +to 0.00557796
Heightened Def Con from 0.00557796 to 0.00557796
Heightened Def Con from 0.00557796 to 0.00557796
Heightened Def Con from 0.00557796 to 0.00557796
Heightened Def Con from 0.00557796 to 0.00557796
Heightened Def Con from 0.00557796 +to 0.00557796
Heightened Def Con from 0.00557796 +to 0.00557796
Heightened Def Con from 0.00557796 ++to 0.00557796
Heightened Def Con from 0.0055939 +to 0.0055939
Heightened Def Con from 0.0055939 to 0.0055939
Heightened Def Con from 0.0055939 to 0.0055939
Heightened Def Con from 0.0055939 to 0.0055939
Heightened Def Con from 0.0055939 +to 0.0055939
Heightened Def Con from 0.0055939 to 0.0055939
Heightened Def Con from 0.0055939 ++to 0.0055939
Heightened Def Con from 0.0055939 to 0.0055939
Heightened Def Con from 0.0055939 ++to 0.0055939
Heightened Def Con from 0.0055939 +to 0.0055939
Heightened Def Con from 0.0055939 to 0.0055939
Heightened Def Con from 0.0055939 to 0.0055939
Heightened Def Con from 0.0055939 ++to 0.0055939
Heightened Def Con from 0.0055939 ++to 0.0055939
Heightened Def Con from 0.0055939 to 0.0055939
Heightened Def Con from 0.0055939 +to 0.0055939
Heightened Def Con from 0.0055939 to 0.0055939
Heightened Def Con from 0.0055939 to 0.0055939
Heightened Def Con from 0.0055939 to 0.0055939
Heightened Def Con from 0.0055939 to 0.0055939
Heightened Def Con from 0.0055939 to 0.0055939
Heightened Def Con from 0.0055939 to 0.0055939
Heightened Def Con from 0.0055939 to 0.0055939
Heightened Def Con from 0.0055939 +to 0.0055939
Heightened Def Con from 0.0055939 to 0.0055939
Heightened Def Con from 0.0055939 to 0.0055939
Heightened Def Con from 0.0055939 to 0.0055939
Heightened Def Con from 0.0055939 to 0.0055939
Heightened Def Con from 0.0055939 to 0.0055939
Heightened Def Con from 0.0055939 to 0.0055939
Heightened Def Con from 0.0055939 to 0.0055939
Heightened Def Con from 0.0055939 +to 0.0055939
Heightened Def Con from 0.0055939 to 0.0055939
Heightened Def Con from 0.0055939 +++to 0.0055939
Heightened Def Con from 0.0055939 to 0.0055939
Heightened Def Con from 0.0055939 to 0.0055939
Heightened Def Con from 0.0055939 to 0.0055939
Heightened Def Con from 0.0055939 +to 0.0055939
Heightened Def Con from 0.0055939 to 0.0055939
Heightened Def Con from 0.0055939 to 0.0055939
Heightened Def Con from 0.0055939 to 0.0055939
Heightened Def Con from 0.0055939 to 0.0055939
Heightened Def Con from 0.0055939 ++to 0.0055939
Heightened Def Con from 0.0055939 to 0.0055939
Heightened Def Con from 0.0055939 ++to 0.0055939
Heightened Def Con from 0.0055939 to 0.0055939
Heightened Def Con from 0.0055939 to 0.0055939
Heightened Def Con from 0.0055939 to 0.0055939
Heightened Def Con from 0.0055939 to 0.0055939
Heightened Def Con from 0.0055939 to 0.0055939
Heightened Def Con from 0.0055939 to 0.0055939
Heightened Def Con from 0.0055939 to 0.0055939
Heightened Def Con from 0.0055939 to 0.0055939
Heightened Def Con from 0.0055939 to 0.0055939
Heightened Def Con from 0.0055939 to 0.0055939
Heightened Def Con from 0.0055939 to 0.0055939
Heightened Def Con from 0.0055939 to 0.0055939
Heightened Def Con from 0.0055939 to 0.0055939
Heightened Def Con from 0.0055939 +to 0.0055939
Heightened Def Con from 0.0055939 to 0.0055939
Heightened Def Con from 0.0055939 ++to 0.0055939
Heightened Def Con from 0.0055939 to 0.0055939
Heightened Def Con from 0.0055939 +to 0.0055939
Heightened Def Con from 0.0055939 ++to 0.0055939
Heightened Def Con from 0.0055939 to 0.0055939
Heightened Def Con from 0.0055939 to 0.0055939
Heightened Def Con from 0.0055939 to 0.0055939
Heightened Def Con from 0.0055939 to 0.0055939
Heightened Def Con from 0.0055939 to 0.0055939
Heightened Def Con from 0.0055939 to 0.0055939
Heightened Def Con from 0.0055939 +++to 0.0055939
Heightened Def Con from 0.0055939 ++to 0.0055939
Heightened Def Con from 0.0055939 to 0.0055939
Heightened Def Con from 0.0055939 to 0.0055939
Heightened Def Con from 0.0055939 +to 0.0055939
Heightened Def Con from 0.0055939 to 0.0055939
Heightened Def Con from 0.0055939 to 0.0055939
Heightened Def Con from 0.0055939 to 0.0055939
Heightened Def Con from 0.0055939 to 0.0055939
Heightened Def Con from 0.0055939 to 0.0055939
Heightened Def Con from 0.0055939 to 0.0055939
Heightened Def Con from 0.0055939 to 0.0055939
Heightened Def Con from 0.0055939 to 0.0055939
Heightened Def Con from 0.0055939 to 0.0055939
Heightened Def Con from 0.0055939 +to 0.0055939
Heightened Def Con from 0.0055939 to 0.0055939
Heightened Def Con from 0.0055939 to 0.0055939
Heightened Def Con from 0.0055939 to 0.0055939
Heightened Def Con from 0.0055939 +to 0.0055939
Heightened Def Con from 0.0055939 to 0.0055939
Heightened Def Con from 0.0055939 to 0.0055939
Heightened Def Con from 0.0055939 to 0.0055939
Heightened Def Con from 0.0055939 to 0.0055939
Heightened Def Con from 0.0055939 to 0.0055939
Heightened Def Con from 0.0055939 to 0.0055939
Heightened Def Con from 0.0055939 to 0.0055939
Heightened Def Con from 0.0055939 to 0.0055939
Heightened Def Con from 0.0055939 to 0.0055939
Heightened Def Con from 0.0055939 to 0.0055939
Heightened Def Con from 0.0055939 to 0.0055939
Heightened Def Con from 0.0055939 +to 0.0055939
Heightened Def Con from 0.0055939 +to 0.0055939
Heightened Def Con from 0.0055939 +to 0.0055939
Heightened Def Con from 0.0055939 to 0.0055939
Heightened Def Con from 0.0055939 to 0.0055939
Heightened Def Con from 0.0055939 to 0.0055939
Heightened Def Con from 0.0055939 to 0.0055939
Heightened Def Con from 0.0055939 to 0.0055939
Heightened Def Con from 0.0055939 to 0.0055939
Heightened Def Con from 0.0055939 to 0.0055939
Heightened Def Con from 0.0055939 to 0.0055939
Heightened Def Con from 0.0055939 to 0.0055939
Heightened Def Con from 0.0055939 to 0.0055939
Heightened Def Con from 0.0055939 ++to 0.0055939
Heightened Def Con from 0.0055939 to 0.0055939
Heightened Def Con from 0.0055939 to 0.0055939
Heightened Def Con from 0.0055939 to 0.0055939
Heightened Def Con from 0.0055939 ++++++++++++++++to 0.0055939
Heightened Def Con from 0.00561509 to 0.00561509
Heightened Def Con from 0.00561509 +to 0.00561509
Heightened Def Con from 0.00561509 to 0.00561509
Heightened Def Con from 0.00561509 to 0.00561509
Heightened Def Con from 0.00561509 to 0.00561509
Heightened Def Con from 0.00561509 ++to 0.00561509
Heightened Def Con from 0.00561509 +to 0.00561509
Heightened Def Con from 0.00561509 to 0.00561509
Heightened Def Con from 0.00563103 to 0.00563103
Heightened Def Con from 0.00563103 to 0.00563103
Heightened Def Con from 0.00563103 ++to 0.00563103
Heightened Def Con from 0.00563103 to 0.00563103
Heightened Def Con from 0.00563103 +to 0.00563103
Heightened Def Con from 0.00563103 to 0.00563103
Heightened Def Con from 0.00563103 +to 0.00563103
Heightened Def Con from 0.00563103 +to 0.00563103
Heightened Def Con from 0.00563103 to 0.00563103
Heightened Def Con from 0.00563103 to 0.00563103
Heightened Def Con from 0.00563103 to 0.00563103
Heightened Def Con from 0.00563103 to 0.00563103
Heightened Def Con from 0.00563103 to 0.00563103
Heightened Def Con from 0.00563103 to 0.00563103
Heightened Def Con from 0.00563103 +to 0.00563103
Heightened Def Con from 0.00563103 to 0.00563103
Heightened Def Con from 0.00563103 to 0.00563103
Heightened Def Con from 0.00563103 to 0.00563103
Heightened Def Con from 0.00563103 +to 0.00563103
Heightened Def Con from 0.00563103 ++to 0.00563103
Heightened Def Con from 0.00563103 +to 0.00563103
Heightened Def Con from 0.00563103 to 0.00563103
Heightened Def Con from 0.00563103 +to 0.00563103
Heightened Def Con from 0.00563103 ++to 0.00563103
Heightened Def Con from 0.00563103 to 0.00563103
Heightened Def Con from 0.00563103 to 0.00563103
Heightened Def Con from 0.00563103 to 0.00563103
Heightened Def Con from 0.00563103 to 0.00563103
Heightened Def Con from 0.00563103 to 0.00563103
Heightened Def Con from 0.00563103 ++++++++++++++to 0.00563103
Heightened Def Con from 0.00565222 +to 0.00565222
Heightened Def Con from 0.00565222 +to 0.00565222
Heightened Def Con from 0.00565222 ++to 0.00565222
Heightened Def Con from 0.00565222 to 0.00565222
Heightened Def Con from 0.00565222 +to 0.00565222
Heightened Def Con from 0.00565222 +to 0.00565222
Heightened Def Con from 0.00565222 +to 0.00565222
Heightened Def Con from 0.00565222 ++to 0.00565222
Heightened Def Con from 0.00565222 to 0.00565222
Heightened Def Con from 0.00566815 to 0.00566815
Heightened Def Con from 0.00566815 to 0.00566815
Heightened Def Con from 0.00566815 to 0.00566815
Heightened Def Con from 0.00566815 to 0.00566815
Heightened Def Con from 0.00566815 to 0.00566815
Heightened Def Con from 0.00566815 to 0.00566815
Heightened Def Con from 0.00566815 +to 0.00566815
Heightened Def Con from 0.00566815 +to 0.00566815
Heightened Def Con from 0.00566815 to 0.00566815
Heightened Def Con from 0.00566815 to 0.00566815
Heightened Def Con from 0.00566815 to 0.00566815
Heightened Def Con from 0.00566815 to 0.00566815
Heightened Def Con from 0.00566815 to 0.00566815
Heightened Def Con from 0.00566815 +to 0.00566815
Heightened Def Con from 0.00566815 to 0.00566815
Heightened Def Con from 0.00566815 +++++++++++++to 0.00566815
Heightened Def Con from 0.00568934 to 0.00568934
Heightened Def Con from 0.00568934 +to 0.00568934
Heightened Def Con from 0.00568934 to 0.00568934
Heightened Def Con from 0.00568934 to 0.00568934
Heightened Def Con from 0.00568934 ++to 0.00568934
Heightened Def Con from 0.00568934 to 0.00568934
Heightened Def Con from 0.00568934 +++++to 0.00568934
Heightened Def Con from 0.00568934 +to 0.00568934
Heightened Def Con from 0.00568934 to 0.00568934
Heightened Def Con from 0.00568934 to 0.00568934
Heightened Def Con from 0.00568934 to 0.00568934
Heightened Def Con from 0.00568934 +to 0.00568934
Heightened Def Con from 0.00568934 to 0.00568934
Heightened Def Con from 0.00568934 to 0.00568934
Heightened Def Con from 0.00568934 to 0.00568934
Heightened Def Con from 0.00568934 ++++to 0.00568934
Heightened Def Con from 0.00570528 to 0.00570528
Heightened Def Con from 0.00570528 to 0.00570528
Heightened Def Con from 0.00570528 ++to 0.00570528
Heightened Def Con from 0.00570528 ++to 0.00570528
Heightened Def Con from 0.00570528 +to 0.00570528
Heightened Def Con from 0.00570528 to 0.00570528
Heightened Def Con from 0.00570528 to 0.00570528
Heightened Def Con from 0.00570528 to 0.00570528
Heightened Def Con from 0.00570528 ++to 0.00570528
Heightened Def Con from 0.00570528 to 0.00570528
Heightened Def Con from 0.00570528 to 0.00570528
Heightened Def Con from 0.00570528 +to 0.00570528
Heightened Def Con from 0.00570528 to 0.00570528
Heightened Def Con from 0.00570528 to 0.00570528
Heightened Def Con from 0.00570528 to 0.00570528
Heightened Def Con from 0.00570528 +to 0.00570528
Heightened Def Con from 0.00570528 to 0.00570528
Heightened Def Con from 0.00570528 +++to 0.00570528
Heightened Def Con from 0.00570528 to 0.00570528
Heightened Def Con from 0.00574223 to 0.00574223
Heightened Def Con from 0.00574223 to 0.00574223
Heightened Def Con from 0.00574223 to 0.00574223
Heightened Def Con from 0.00574223 ++to 0.00574223
Heightened Def Con from 0.00574223 to 0.00574223
Heightened Def Con from 0.00574223 ++to 0.00574223
Heightened Def Con from 0.00574223 ++to 0.00574223
Heightened Def Con from 0.00574223 to 0.00574223
Heightened Def Con from 0.00574223 ++++to 0.00574223
Heightened Def Con from 0.00574223 to 0.00574223
Heightened Def Con from 0.00574223 +to 0.00574223
Heightened Def Con from 0.00574223 to 0.00574223
Heightened Def Con from 0.00574223 +to 0.00574223
Heightened Def Con from 0.00574223 +to 0.00574223
Heightened Def Con from 0.00574223 to 0.00574223
Heightened Def Con from 0.00574223 +++to 0.00574223
Heightened Def Con from 0.00574223 +to 0.00574223
Heightened Def Con from 0.00574223 +to 0.00574223
Heightened Def Con from 0.00574223 ++to 0.00574223
Heightened Def Con from 0.00574223 to 0.00574223
Heightened Def Con from 0.00574223 to 0.00574223
Heightened Def Con from 0.00574223 to 0.00574223
Heightened Def Con from 0.00574223 ++to 0.00574223
Heightened Def Con from 0.00574223 to 0.00574223
Heightened Def Con from 0.00574223 to 0.00574223
Heightened Def Con from 0.00574223 +to 0.00574223
Heightened Def Con from 0.00574223 to 0.00574223
Heightened Def Con from 0.00574223 +to 0.00574223
Heightened Def Con from 0.00574223 ++to 0.00574223
Heightened Def Con from 0.00574223 to 0.00574223
Heightened Def Con from 0.00574223 to 0.00574223
Heightened Def Con from 0.00574223 to 0.00574223
Heightened Def Con from 0.00574223 +++to 0.00574223
Heightened Def Con from 0.00574223 to 0.00574223
Heightened Def Con from 0.00574223 to 0.00574223
Heightened Def Con from 0.00574223 to 0.00574223
Heightened Def Con from 0.00574223 +to 0.00574223
Heightened Def Con from 0.00574223 to 0.00574223
Heightened Def Con from 0.00574223 +++++++++++++++to 0.00574223
Heightened Def Con from 0.00576341 to 0.00576341
Heightened Def Con from 0.00576341 to 0.00576341
Heightened Def Con from 0.00576341 +to 0.00576341
Heightened Def Con from 0.00577936 +to 0.00577936
Heightened Def Con from 0.00577936 to 0.00577936
Heightened Def Con from 0.00577936 to 0.00577936
Heightened Def Con from 0.00577936 to 0.00577936
Heightened Def Con from 0.00577936 to 0.00577936
Heightened Def Con from 0.00577936 to 0.00577936
Heightened Def Con from 0.00577936 +to 0.00577936
Heightened Def Con from 0.00577936 to 0.00577936
Heightened Def Con from 0.00577936 to 0.00577936
Heightened Def Con from 0.00577936 to 0.00577936
Heightened Def Con from 0.00577936 +++++++++++++++++++++to 0.00577936
Heightened Def Con from 0.00580055 to 0.00580055
Heightened Def Con from 0.00580055 +++to 0.00580055
Heightened Def Con from 0.00580055 to 0.00580055
Heightened Def Con from 0.00580055 +++to 0.00580055
Heightened Def Con from 0.00580055 to 0.00580055
Heightened Def Con from 0.00580055 to 0.00580055
Heightened Def Con from 0.00580055 ++to 0.00580055
Heightened Def Con from 0.00580055 +++to 0.00580055
Heightened Def Con from 0.00580055 to 0.00580055
Heightened Def Con from 0.00580055 to 0.00580055
Heightened Def Con from 0.00580055 to 0.00580055
Heightened Def Con from 0.00580055 +++to 0.00580055
Heightened Def Con from 0.00580055 +to 0.00580055
Heightened Def Con from 0.00580055 ++++to 0.00580055
Heightened Def Con from 0.00580055 +to 0.00580055
Heightened Def Con from 0.00580055 +++++++++++++to 0.00580055
Heightened Def Con from 0.00581649 +to 0.00581649
Heightened Def Con from 0.00581649 ++to 0.00581649
Heightened Def Con from 0.00581649 ++to 0.00581649
Heightened Def Con from 0.00581649 +to 0.00581649
Heightened Def Con from 0.00581649 to 0.00581649
Heightened Def Con from 0.00581649 to 0.00581649
Heightened Def Con from 0.00581649 to 0.00581649
Heightened Def Con from 0.00581649 +to 0.00581649
Heightened Def Con from 0.00581649 to 0.00581649
Heightened Def Con from 0.00581649 to 0.00581649
Heightened Def Con from 0.00581649 to 0.00581649
Heightened Def Con from 0.00581649 to 0.00581649
Heightened Def Con from 0.00581649 ++to 0.00581649
Heightened Def Con from 0.00581649 to 0.00581649
Heightened Def Con from 0.00581649 to 0.00581649
Heightened Def Con from 0.00581649 to 0.00581649
Heightened Def Con from 0.00581649 to 0.00581649
Heightened Def Con from 0.00581649 +to 0.00581649
Heightened Def Con from 0.00581649 to 0.00581649
Heightened Def Con from 0.00581649 to 0.00581649
Heightened Def Con from 0.00581649 ++++to 0.00581649
Heightened Def Con from 0.00581649 to 0.00581649
Heightened Def Con from 0.00581649 to 0.00581649
Heightened Def Con from 0.00581649 to 0.00581649
Heightened Def Con from 0.00581649 +to 0.00581649
Heightened Def Con from 0.00583768 to 0.00583768
Heightened Def Con from 0.00583768 +++to 0.00583768
Heightened Def Con from 0.00583768 +to 0.00583768
Heightened Def Con from 0.00583768 to 0.00583768
Heightened Def Con from 0.00583768 ++to 0.00583768
Heightened Def Con from 0.00583768 +++to 0.00583768
Heightened Def Con from 0.00583768 +to 0.00583768
Heightened Def Con from 0.00583768 +to 0.00583768
Heightened Def Con from 0.00583768 to 0.00583768
Heightened Def Con from 0.00583768 +to 0.00583768
Heightened Def Con from 0.00583768 ++to 0.00583768
Heightened Def Con from 0.00583768 +to 0.00583768
Heightened Def Con from 0.00583768 to 0.00583768
Heightened Def Con from 0.00583768 +to 0.00583768
Heightened Def Con from 0.00583768 to 0.00583768
Heightened Def Con from 0.00583768 to 0.00583768
Heightened Def Con from 0.00583768 +++to 0.00583768
Heightened Def Con from 0.00583768 to 0.00583768
Heightened Def Con from 0.00583768 to 0.00583768
Heightened Def Con from 0.00583768 to 0.00583768
Heightened Def Con from 0.00583768 to 0.00583768
Heightened Def Con from 0.00583768 to 0.00583768
Heightened Def Con from 0.00583768 +to 0.00583768
Heightened Def Con from 0.00583768 to 0.00583768
Heightened Def Con from 0.00583768 ++to 0.00583768
Heightened Def Con from 0.00583768 to 0.00583768
Heightened Def Con from 0.00583768 +++++to 0.00583768
Heightened Def Con from 0.00583768 to 0.00583768
Heightened Def Con from 0.00583768 to 0.00583768
Heightened Def Con from 0.00583768 ++to 0.00583768
Heightened Def Con from 0.00583768 +to 0.00583768
Heightened Def Con from 0.00583768 ++to 0.00583768
Heightened Def Con from 0.00583768 ++to 0.00583768
Heightened Def Con from 0.00583768 to 0.00583768
Heightened Def Con from 0.00583768 to 0.00583768
Heightened Def Con from 0.00583768 +to 0.00583768
Heightened Def Con from 0.00583768 +to 0.00583768
Heightened Def Con from 0.00583768 +++to 0.00583768
Heightened Def Con from 0.00583768 to 0.00583768
Heightened Def Con from 0.00583768 +++to 0.00583768
Heightened Def Con from 0.00583768 to 0.00583768
Heightened Def Con from 0.00583768 +++++to 0.00583768
Heightened Def Con from 0.00583768 ++++++to 0.00583768
Heightened Def Con from 0.00585363 to 0.00585363
Heightened Def Con from 0.00585363 to 0.00585363
Heightened Def Con from 0.00585363 to 0.00585363
Heightened Def Con from 0.00585363 ++to 0.00585363
Heightened Def Con from 0.00585363 to 0.00585363
Heightened Def Con from 0.00585363 to 0.00585363
Heightened Def Con from 0.00585363 to 0.00585363
Heightened Def Con from 0.00585363 to 0.00585363
Heightened Def Con from 0.00585363 to 0.00585363
Heightened Def Con from 0.00585363 to 0.00585363
Heightened Def Con from 0.00585363 to 0.00585363
Heightened Def Con from 0.00585363 to 0.00585363
Heightened Def Con from 0.00585363 to 0.00585363
Heightened Def Con from 0.00585363 to 0.00585363
Heightened Def Con from 0.00585363 to 0.00585363
Heightened Def Con from 0.00585363 +to 0.00585363
Heightened Def Con from 0.00585363 to 0.00585363
Heightened Def Con from 0.00585363 to 0.00585363
Heightened Def Con from 0.00585363 +to 0.00585363
Heightened Def Con from 0.00585363 to 0.00585363
Heightened Def Con from 0.00585363 +to 0.00585363
Heightened Def Con from 0.00585363 to 0.00585363
Heightened Def Con from 0.00585363 to 0.00585363
Heightened Def Con from 0.00585363 to 0.00585363
Heightened Def Con from 0.00585363 to 0.00585363
Heightened Def Con from 0.00585363 +to 0.00585363
Heightened Def Con from 0.00585363 to 0.00585363
Heightened Def Con from 0.00585363 to 0.00585363
Heightened Def Con from 0.00585363 to 0.00585363
Heightened Def Con from 0.00585363 to 0.00585363
Heightened Def Con from 0.00587464 +to 0.00587464
Heightened Def Con from 0.00587464 ++to 0.00587464
Heightened Def Con from 0.00587464 to 0.00587464
Heightened Def Con from 0.00587464 to 0.00587464
Heightened Def Con from 0.00587464 to 0.00587464
Heightened Def Con from 0.00587464 to 0.00587464
Heightened Def Con from 0.00587464 to 0.00587464
Heightened Def Con from 0.00587464 +to 0.00587464
Heightened Def Con from 0.00587464 +++to 0.00587464
Heightened Def Con from 0.00587464 to 0.00587464
Heightened Def Con from 0.00587464 +to 0.00587464
Heightened Def Con from 0.00587464 to 0.00587464
Heightened Def Con from 0.00587464 to 0.00587464
Heightened Def Con from 0.00587464 ++to 0.00587464
Heightened Def Con from 0.00587464 to 0.00587464
Heightened Def Con from 0.00587464 to 0.00587464
Heightened Def Con from 0.00587464 to 0.00587464
Heightened Def Con from 0.00587464 to 0.00587464
Heightened Def Con from 0.00587464 +to 0.00587464
Heightened Def Con from 0.00587464 +++++to 0.00587464
Heightened Def Con from 0.00587464 to 0.00587464
Heightened Def Con from 0.00587464 to 0.00587464
Heightened Def Con from 0.00587464 to 0.00587464
Heightened Def Con from 0.00587464 +to 0.00587464
Heightened Def Con from 0.00587464 ++to 0.00587464
Heightened Def Con from 0.00587464 +++to 0.00587464
Heightened Def Con from 0.00589059 +to 0.00589059
Heightened Def Con from 0.00589059 to 0.00589059
Heightened Def Con from 0.0059116 ++to 0.0059116
Heightened Def Con from 0.0059116 to 0.0059116
Heightened Def Con from 0.0059116 to 0.0059116
Heightened Def Con from 0.0059116 +to 0.0059116
Heightened Def Con from 0.0059116 +to 0.0059116
Heightened Def Con from 0.0059116 to 0.0059116
Heightened Def Con from 0.0059116 to 0.0059116
Heightened Def Con from 0.0059116 +++++++++++++++++++++to 0.0059116
Heightened Def Con from 0.00592755 to 0.00592755
Heightened Def Con from 0.00592755 to 0.00592755
Heightened Def Con from 0.00592755 to 0.00592755
Heightened Def Con from 0.00592755 to 0.00592755
Heightened Def Con from 0.00592755 to 0.00592755
Heightened Def Con from 0.00592755 to 0.00592755
Heightened Def Con from 0.00592755 to 0.00592755
Heightened Def Con from 0.00592755 to 0.00592755
Heightened Def Con from 0.00592755 to 0.00592755
Heightened Def Con from 0.00592755 to 0.00592755
Heightened Def Con from 0.00592755 to 0.00592755
Heightened Def Con from 0.00592755 to 0.00592755
Heightened Def Con from 0.00592755 to 0.00592755
Heightened Def Con from 0.00592755 to 0.00592755
Heightened Def Con from 0.00592755 ++++++++++++++++to 0.00592755
Heightened Def Con from 0.00594874 ++++to 0.00594874
Heightened Def Con from 0.00594874 to 0.00594874
Heightened Def Con from 0.00594874 +to 0.00594874
Heightened Def Con from 0.00594874 ++to 0.00594874
Heightened Def Con from 0.00594874 to 0.00594874
Heightened Def Con from 0.00594874 to 0.00594874
Heightened Def Con from 0.00594874 to 0.00594874
Heightened Def Con from 0.00594874 to 0.00594874
Heightened Def Con from 0.00594874 to 0.00594874
Heightened Def Con from 0.00594874 to 0.00594874
Heightened Def Con from 0.00594874 to 0.00594874
Heightened Def Con from 0.00594874 to 0.00594874
Heightened Def Con from 0.00594874 +to 0.00594874
Heightened Def Con from 0.00594874 to 0.00594874
Heightened Def Con from 0.00594874 to 0.00594874
Heightened Def Con from 0.00594874 to 0.00594874
Heightened Def Con from 0.00594874 +to 0.00594874
Heightened Def Con from 0.00594874 +to 0.00594874
Heightened Def Con from 0.00594874 +++++++++++++++++++++to 0.00594874
Heightened Def Con from 0.00596469 to 0.00596469
Heightened Def Con from 0.00596469 to 0.00596469
Heightened Def Con from 0.00596469 to 0.00596469
Heightened Def Con from 0.00596469 to 0.00596469
Heightened Def Con from 0.00596469 to 0.00596469
Heightened Def Con from 0.00596469 ++to 0.00596469
Heightened Def Con from 0.00596469 to 0.00596469
Heightened Def Con from 0.00596469 to 0.00596469
Heightened Def Con from 0.00596469 to 0.00596469
Heightened Def Con from 0.00596469 to 0.00596469
Heightened Def Con from 0.00596469 to 0.00596469
Heightened Def Con from 0.00596469 to 0.00596469
Heightened Def Con from 0.00596469 ++to 0.00596469
Heightened Def Con from 0.00596469 to 0.00596469
Heightened Def Con from 0.0059857 to 0.0059857
Heightened Def Con from 0.0059857 +to 0.0059857
Heightened Def Con from 0.0059857 to 0.0059857
Heightened Def Con from 0.0059857 +++to 0.0059857
Heightened Def Con from 0.0059857 to 0.0059857
Heightened Def Con from 0.0059857 +to 0.0059857
Heightened Def Con from 0.0059857 to 0.0059857
Heightened Def Con from 0.0059857 +++to 0.0059857
Heightened Def Con from 0.0059857 to 0.0059857
Heightened Def Con from 0.0059857 to 0.0059857
Heightened Def Con from 0.0059857 to 0.0059857
Heightened Def Con from 0.0059857 to 0.0059857
Heightened Def Con from 0.0059857 to 0.0059857
Heightened Def Con from 0.0059857 to 0.0059857
Heightened Def Con from 0.0059857 +to 0.0059857
Heightened Def Con from 0.0059857 to 0.0059857
Heightened Def Con from 0.0059857 +++to 0.0059857
Heightened Def Con from 0.0059857 to 0.0059857
Heightened Def Con from 0.0059857 to 0.0059857
Heightened Def Con from 0.0059857 to 0.0059857
Heightened Def Con from 0.0059857 +to 0.0059857
Heightened Def Con from 0.0059857 +++to 0.0059857
Heightened Def Con from 0.0059857 to 0.0059857
Heightened Def Con from 0.0059857 +++to 0.0059857
Heightened Def Con from 0.0059857 to 0.0059857
Heightened Def Con from 0.0059857 to 0.0059857
Heightened Def Con from 0.0059857 to 0.0059857
Heightened Def Con from 0.0059857 to 0.0059857
Heightened Def Con from 0.0059857 to 0.0059857
Heightened Def Con from 0.0059857 to 0.0059857
Heightened Def Con from 0.0059857 +to 0.0059857
Heightened Def Con from 0.0059857 +to 0.0059857
Heightened Def Con from 0.0059857 to 0.0059857
Heightened Def Con from 0.0059857 ++to 0.0059857
Heightened Def Con from 0.0059857 ++to 0.0059857
Heightened Def Con from 0.0059857 to 0.0059857
Heightened Def Con from 0.0059857 +to 0.0059857
Heightened Def Con from 0.0059857 to 0.0059857
Heightened Def Con from 0.0059857 to 0.0059857
Heightened Def Con from 0.0059857 to 0.0059857
Heightened Def Con from 0.0059857 ++to 0.0059857
Heightened Def Con from 0.0059857 to 0.0059857
Heightened Def Con from 0.0059857 to 0.0059857
Heightened Def Con from 0.0059857 +++++++to 0.0059857
Heightened Def Con from 0.0059857 +++++++++++++++++++++to 0.0059857
Heightened Def Con from 0.00600165 to 0.00600165
Heightened Def Con from 0.00600165 to 0.00600165
Heightened Def Con from 0.00600165 +to 0.00600165
Heightened Def Con from 0.00600165 to 0.00600165
Heightened Def Con from 0.00600165 to 0.00600165
Heightened Def Con from 0.00600165 to 0.00600165
Heightened Def Con from 0.00600165 to 0.00600165
Heightened Def Con from 0.00600165 to 0.00600165
Heightened Def Con from 0.00600165 to 0.00600165
Heightened Def Con from 0.00600165 to 0.00600165
Heightened Def Con from 0.00600165 +to 0.00600165
Heightened Def Con from 0.00600165 to 0.00600165
Heightened Def Con from 0.00600165 to 0.00600165
Heightened Def Con from 0.00600165 to 0.00600165
Heightened Def Con from 0.00600165 +to 0.00600165
Heightened Def Con from 0.00600165 to 0.00600165
Heightened Def Con from 0.00600165 to 0.00600165
Heightened Def Con from 0.00600165 to 0.00600165
Heightened Def Con from 0.00600165 ++++++++++++++++to 0.00600165
Heightened Def Con from 0.00602284 +to 0.00602284
Heightened Def Con from 0.00602284 to 0.00602284
Heightened Def Con from 0.00602284 +to 0.00602284
Heightened Def Con from 0.00602284 to 0.00602284
Heightened Def Con from 0.00602284 to 0.00602284
Heightened Def Con from 0.00602284 +to 0.00602284
Heightened Def Con from 0.00602284 to 0.00602284
Heightened Def Con from 0.00602284 +to 0.00602284
Heightened Def Con from 0.00602284 to 0.00602284
Heightened Def Con from 0.00602284 to 0.00602284
Heightened Def Con from 0.00602284 to 0.00602284
Heightened Def Con from 0.00603878 +to 0.00603878
Heightened Def Con from 0.00603878 +to 0.00603878
Heightened Def Con from 0.00603878 to 0.00603878
Heightened Def Con from 0.00603878 to 0.00603878
Heightened Def Con from 0.00603878 to 0.00603878
Heightened Def Con from 0.00603878 ++to 0.00603878
Heightened Def Con from 0.00603878 to 0.00603878
Heightened Def Con from 0.00603878 +to 0.00603878
Heightened Def Con from 0.00603878 to 0.00603878
Heightened Def Con from 0.00603878 to 0.00603878
Heightened Def Con from 0.00603878 +to 0.00603878
Heightened Def Con from 0.00605979 ++++++to 0.00605979
Heightened Def Con from 0.00605979 to 0.00605979
Heightened Def Con from 0.00605979 +to 0.00605979
Heightened Def Con from 0.00607572 to 0.00607572
Heightened Def Con from 0.00607572 to 0.00607572
Heightened Def Con from 0.00607572 to 0.00607572
Heightened Def Con from 0.00607572 to 0.00607572
Heightened Def Con from 0.00607572 to 0.00607572
Heightened Def Con from 0.00607572 to 0.00607572
Heightened Def Con from 0.00607572 to 0.00607572
Heightened Def Con from 0.00607572 +to 0.00607572
Heightened Def Con from 0.00607572 to 0.00607572
Heightened Def Con from 0.00607572 to 0.00607572
Heightened Def Con from 0.00607572 to 0.00607572
Heightened Def Con from 0.00607572 to 0.00607572
Heightened Def Con from 0.00607572 to 0.00607572
Heightened Def Con from 0.00607572 to 0.00607572
Heightened Def Con from 0.00607572 to 0.00607572
Heightened Def Con from 0.00607572 +to 0.00607572
Heightened Def Con from 0.00607572 to 0.00607572
Heightened Def Con from 0.00607572 to 0.00607572
Heightened Def Con from 0.00607572 +to 0.00607572
Heightened Def Con from 0.00607572 to 0.00607572
Heightened Def Con from 0.00607572 +to 0.00607572
Heightened Def Con from 0.00607572 to 0.00607572
Heightened Def Con from 0.00607572 to 0.00607572
Heightened Def Con from 0.00609674 +to 0.00609674
Heightened Def Con from 0.00609674 ++++++++to 0.00609674
Heightened Def Con from 0.00611268 ++to 0.00611268
Heightened Def Con from 0.00611268 to 0.00611268
Heightened Def Con from 0.00611268 to 0.00611268
Heightened Def Con from 0.00611268 to 0.00611268
Heightened Def Con from 0.00611268 to 0.00611268
Heightened Def Con from 0.00611268 to 0.00611268
Heightened Def Con from 0.00611268 to 0.00611268
Heightened Def Con from 0.00611268 to 0.00611268
Heightened Def Con from 0.00611268 +++++to 0.00611268
Heightened Def Con from 0.00611268 to 0.00611268
Heightened Def Con from 0.00611268 to 0.00611268
Heightened Def Con from 0.00611268 to 0.00611268
Heightened Def Con from 0.00611268 +to 0.00611268
Heightened Def Con from 0.00611268 to 0.00611268
Heightened Def Con from 0.00611268 to 0.00611268
Heightened Def Con from 0.00611268 to 0.00611268
Heightened Def Con from 0.00611268 +to 0.00611268
Heightened Def Con from 0.00611268 +to 0.00611268
Heightened Def Con from 0.00611268 to 0.00611268
Heightened Def Con from 0.00611268 ++to 0.00611268
Heightened Def Con from 0.00611268 to 0.00611268
Heightened Def Con from 0.00611268 +to 0.00611268
Heightened Def Con from 0.00611268 to 0.00611268
Heightened Def Con from 0.00611268 to 0.00611268
Heightened Def Con from 0.00611268 ++to 0.00611268
Heightened Def Con from 0.00611268 to 0.00611268
Heightened Def Con from 0.00611268 to 0.00611268
Heightened Def Con from 0.00611268 to 0.00611268
Heightened Def Con from 0.00611268 +++to 0.00611268
Heightened Def Con from 0.00611268 to 0.00611268
Heightened Def Con from 0.00611268 +to 0.00611268
Heightened Def Con from 0.00611268 to 0.00611268
Heightened Def Con from 0.00611268 to 0.00611268
Heightened Def Con from 0.00611268 +to 0.00611268
Heightened Def Con from 0.00611268 to 0.00611268
Heightened Def Con from 0.00611268 to 0.00611268
Heightened Def Con from 0.00611268 to 0.00611268
Heightened Def Con from 0.00611268 to 0.00611268
Heightened Def Con from 0.00611268 +++++to 0.00611268
Heightened Def Con from 0.00611268 ++++++++++++++++++to 0.00611269
Heightened Def Con from 0.00613387 to 0.00613387
Heightened Def Con from 0.00613387 to 0.00613387
Heightened Def Con from 0.00613387 +to 0.00613387
Heightened Def Con from 0.00613387 to 0.00613387
Heightened Def Con from 0.00613387 ++to 0.00613387
Heightened Def Con from 0.00613387 +++++to 0.00613387
Heightened Def Con from 0.00613387 to 0.00613387
Heightened Def Con from 0.00613387 ++to 0.00613387
Heightened Def Con from 0.00613387 +++++++++++to 0.00613387
Heightened Def Con from 0.00614982 +to 0.00614982
Heightened Def Con from 0.00617083 ++to 0.00617083
Heightened Def Con from 0.00617083 to 0.00617083
Heightened Def Con from 0.00617083 ++to 0.00617083
Heightened Def Con from 0.00617083 ++to 0.00617083
Heightened Def Con from 0.00617083 to 0.00617083
Heightened Def Con from 0.00617083 to 0.00617083
Heightened Def Con from 0.00617083 ++++to 0.00617083
Heightened Def Con from 0.00617083 ++++++++++++++++++to 0.00617083
Heightened Def Con from 0.00618678 ++++to 0.00618678
Heightened Def Con from 0.00618678 to 0.00618678
Heightened Def Con from 0.00618678 ++to 0.00618678
Heightened Def Con from 0.00618678 to 0.00618678
Heightened Def Con from 0.00618678 to 0.00618678
Heightened Def Con from 0.00618678 to 0.00618678
Heightened Def Con from 0.00618678 to 0.00618678
Heightened Def Con from 0.00618678 to 0.00618678
Heightened Def Con from 0.00618678 to 0.00618678
Heightened Def Con from 0.00618678 to 0.00618678
Heightened Def Con from 0.00618678 to 0.00618678
Heightened Def Con from 0.00618678 ++to 0.00618678
Heightened Def Con from 0.00618678 to 0.00618678
Heightened Def Con from 0.00618678 to 0.00618678
Heightened Def Con from 0.00618678 to 0.00618678
Heightened Def Con from 0.00618678 to 0.00618678
Heightened Def Con from 0.00618678 to 0.00618678
Heightened Def Con from 0.00618678 to 0.00618678
Heightened Def Con from 0.00618678 +to 0.00618678
Heightened Def Con from 0.00618678 to 0.00618678
Heightened Def Con from 0.00618678 to 0.00618678
Heightened Def Con from 0.00618678 to 0.00618678
Heightened Def Con from 0.00618678 ++to 0.00618678
Heightened Def Con from 0.00618678 to 0.00618678
Heightened Def Con from 0.00618678 to 0.00618678
Heightened Def Con from 0.00618678 to 0.00618678
Heightened Def Con from 0.00618678 ++to 0.00618678
Heightened Def Con from 0.00618678 to 0.00618678
Heightened Def Con from 0.00618678 to 0.00618678
Heightened Def Con from 0.00618678 to 0.00618678
Heightened Def Con from 0.00618678 ++to 0.00618678
Heightened Def Con from 0.00618678 to 0.00618678
Heightened Def Con from 0.00618678 ++to 0.00618678
Heightened Def Con from 0.00618678 to 0.00618678
Heightened Def Con from 0.00618678 to 0.00618678
Heightened Def Con from 0.00618678 to 0.00618678
Heightened Def Con from 0.00618678 to 0.00618678
Heightened Def Con from 0.00618678 +to 0.00618678
Heightened Def Con from 0.00618678 to 0.00618678
Heightened Def Con from 0.00618678 to 0.00618678
Heightened Def Con from 0.00618678 +to 0.00618678
Heightened Def Con from 0.00618678 to 0.00618678
Heightened Def Con from 0.00618678 to 0.00618678
Heightened Def Con from 0.00618678 +to 0.00618678
Heightened Def Con from 0.00618678 to 0.00618678
Heightened Def Con from 0.00618678 to 0.00618678
Heightened Def Con from 0.00618678 to 0.00618678
Heightened Def Con from 0.00618678 +to 0.00618678
Heightened Def Con from 0.00618678 to 0.00618678
Heightened Def Con from 0.00618678 to 0.00618678
Heightened Def Con from 0.00618678 to 0.00618678
Heightened Def Con from 0.00618678 to 0.00618678
Heightened Def Con from 0.00618678 to 0.00618678
Heightened Def Con from 0.00618678 to 0.00618678
Heightened Def Con from 0.00618678 ++to 0.00618678
Heightened Def Con from 0.00618678 ++to 0.00618678
Heightened Def Con from 0.00618678 to 0.00618678
Heightened Def Con from 0.00618678 +to 0.00618678
Heightened Def Con from 0.00618678 to 0.00618678
Heightened Def Con from 0.00618678 to 0.00618678
Heightened Def Con from 0.00618678 to 0.00618678
Heightened Def Con from 0.00618678 to 0.00618678
Heightened Def Con from 0.00618678 to 0.00618678
Heightened Def Con from 0.00618678 ++to 0.00618678
Heightened Def Con from 0.00618678 to 0.00618678
Heightened Def Con from 0.00618678 +to 0.00618678
Heightened Def Con from 0.00618678 +to 0.00618678
Heightened Def Con from 0.00618678 to 0.00618678
Heightened Def Con from 0.00618678 +to 0.00618678
Heightened Def Con from 0.00618678 to 0.00618678
Heightened Def Con from 0.00618678 to 0.00618678
Heightened Def Con from 0.00618678 to 0.00618678
Heightened Def Con from 0.00618678 to 0.00618678
Heightened Def Con from 0.00618678 to 0.00618678
Heightened Def Con from 0.00618678 +++++++++++to 0.00618678
Heightened Def Con from 0.00620797 +++++to 0.00620797
Heightened Def Con from 0.00620797 to 0.00620797
Heightened Def Con from 0.00620797 to 0.00620797
Heightened Def Con from 0.00620797 +to 0.00620797
Heightened Def Con from 0.00620797 to 0.00620797
Heightened Def Con from 0.00620797 to 0.00620797
Heightened Def Con from 0.00620797 to 0.00620797
Heightened Def Con from 0.00620797 +to 0.00620797
Heightened Def Con from 0.00620797 to 0.00620797
Heightened Def Con from 0.00620797 +++to 0.00620797
Heightened Def Con from 0.00620797 to 0.00620797
Heightened Def Con from 0.00620797 to 0.00620797
Heightened Def Con from 0.00620797 +to 0.00620797
Heightened Def Con from 0.00620797 to 0.00620797
Heightened Def Con from 0.00620797 to 0.00620797
Heightened Def Con from 0.00620797 +++to 0.00620797
Heightened Def Con from 0.00620797 to 0.00620797
Heightened Def Con from 0.00620797 +++to 0.00620797
Heightened Def Con from 0.00620797 +to 0.00620797
Heightened Def Con from 0.00620797 to 0.00620797
Heightened Def Con from 0.00620797 to 0.00620797
Heightened Def Con from 0.00620797 ++++to 0.00620797
Heightened Def Con from 0.00620797 +to 0.00620797
Heightened Def Con from 0.00620797 to 0.00620797
Heightened Def Con from 0.00620797 to 0.00620797
Heightened Def Con from 0.00620797 to 0.00620797
Heightened Def Con from 0.00620797 to 0.00620797
Heightened Def Con from 0.00620797 to 0.00620797
Heightened Def Con from 0.00620797 to 0.00620797
Heightened Def Con from 0.00620797 to 0.00620797
Heightened Def Con from 0.00620797 to 0.00620797
Heightened Def Con from 0.00620797 to 0.00620797
Heightened Def Con from 0.00620797 to 0.00620797
Heightened Def Con from 0.00620797 ++++++to 0.00620797
Heightened Def Con from 0.00620797 to 0.00620797
Heightened Def Con from 0.00620797 to 0.00620797
Heightened Def Con from 0.00620797 to 0.00620797
Heightened Def Con from 0.00620797 to 0.00620797
Heightened Def Con from 0.00620797 to 0.00620797
[...]
Heightened Def Con from 0.029846 +to 0.029846
Heightened Def Con from 0.029846 to 0.029846
Heightened Def Con from 0.029846 ++to 0.029846
Heightened Def Con from 0.029846 to 0.029846
Heightened Def Con from 0.029846 to 0.029846
Heightened Def Con from 0.029846 ++to 0.029846
Heightened Def Con from 0.029846 +++to 0.029846
Heightened Def Con from 0.029846 to 0.029846
Heightened Def Con from 0.029846 to 0.029846
Heightened Def Con from 0.029846 +++to 0.029846
Heightened Def Con from 0.029846 to 0.029846
Heightened Def Con from 0.029846 to 0.029846
Heightened Def Con from 0.029846 +++++to 0.029846
Heightened Def Con from 0.029846 to 0.029846
Heightened Def Con from 0.029846 to 0.029846
Heightened Def Con from 0.029846 to 0.029846
Heightened Def Con from 0.029846 +to 0.029846
Heightened Def Con from 0.029846 +to 0.029846
Heightened Def Con from 0.029846 to 0.029846
Heightened Def Con from 0.029846 to 0.029846
Heightened Def Con from 0.029846 to 0.029846
Heightened Def Con from 0.029846 ++++++to 0.029846
Heightened Def Con from 0.029846 +to 0.029846
Heightened Def Con from 0.029846 +++to 0.029846
Heightened Def Con from 0.029846 +to 0.029846
Heightened Def Con from 0.029846 ++++++to 0.029846
Heightened Def Con from 0.029846 +++to 0.029846
Heightened Def Con from 0.029846 +++++to 0.029846
Heightened Def Con from 0.029846 +to 0.029846
Heightened Def Con from 0.029846 to 0.029846
Heightened Def Con from 0.0298619 to 0.0298619
Heightened Def Con from 0.0298619 to 0.0298619
Heightened Def Con from 0.0298619 to 0.0298619
Heightened Def Con from 0.0298619 to 0.0298619
Heightened Def Con from 0.0298619 to 0.0298619
Heightened Def Con from 0.0298619 to 0.0298619
Heightened Def Con from 0.0298619 to 0.0298619
Heightened Def Con from 0.0298619 to 0.0298619
Heightened Def Con from 0.0298619 +++++++++++++to 0.0298619
Heightened Def Con from 0.0298831 to 0.0298831
Heightened Def Con from 0.0298831 +to 0.0298831
Heightened Def Con from 0.0298831 to 0.0298831
Heightened Def Con from 0.0298831 to 0.0298831
Heightened Def Con from 0.0298831 to 0.0298831
Heightened Def Con from 0.0298831 to 0.0298831
Heightened Def Con from 0.0298831 +to 0.0298831
Heightened Def Con from 0.0298831 to 0.0298831
Heightened Def Con from 0.0298831 to 0.0298831
Heightened Def Con from 0.0298831 to 0.0298831
Heightened Def Con from 0.0298831 to 0.0298831
Heightened Def Con from 0.0298831 to 0.0298831
Heightened Def Con from 0.0298831 ++to 0.0298831
Heightened Def Con from 0.0298831 to 0.0298831
Heightened Def Con from 0.0298831 to 0.0298831
Heightened Def Con from 0.0298831 ++to 0.0298831
Heightened Def Con from 0.0298831 to 0.0298831
Heightened Def Con from 0.0298831 +to 0.0298831
Heightened Def Con from 0.0298831 +to 0.0298831
Heightened Def Con from 0.0298831 to 0.0298831
Heightened Def Con from 0.0298831 +++to 0.0298831
Heightened Def Con from 0.0298831 +++++to 0.0298831
Heightened Def Con from 0.0298831 to 0.0298831
Heightened Def Con from 0.0298831 to 0.0298831
Heightened Def Con from 0.0298831 to 0.0298831
Heightened Def Con from 0.0298831 to 0.0298831
Heightened Def Con from 0.0298831 to 0.0298831
Heightened Def Con from 0.0298831 to 0.0298831
Heightened Def Con from 0.0298831 to 0.0298831
Heightened Def Con from 0.0298831 to 0.0298831
Heightened Def Con from 0.0298831 to 0.0298831
Heightened Def Con from 0.0298831 +++to 0.0298831
Heightened Def Con from 0.0298831 to 0.0298831
Heightened Def Con from 0.0298831 +++to 0.0298831
Heightened Def Con from 0.0298831 to 0.0298831
Heightened Def Con from 0.0298831 ++to 0.0298831
Heightened Def Con from 0.0298831 to 0.0298831
Heightened Def Con from 0.0298831 to 0.0298831
Heightened Def Con from 0.0298831 to 0.0298831
Heightened Def Con from 0.0298831 +to 0.0298831
Heightened Def Con from 0.0298831 +to 0.0298831
Heightened Def Con from 0.0298831 to 0.0298831
Heightened Def Con from 0.0298831 to 0.0298831
Heightened Def Con from 0.0298831 to 0.0298831
Heightened Def Con from 0.0298831 +to 0.0298831
Heightened Def Con from 0.0298831 +to 0.0298831
Heightened Def Con from 0.0298831 ++++to 0.0298831
Heightened Def Con from 0.0298831 ++to 0.0298831
Heightened Def Con from 0.0298831 to 0.0298831
Heightened Def Con from 0.0298831 to 0.0298831
Heightened Def Con from 0.0298831 +to 0.0298831
Heightened Def Con from 0.0298831 to 0.0298831
Heightened Def Con from 0.0298831 to 0.0298831
Heightened Def Con from 0.0298831 to 0.0298831
Heightened Def Con from 0.0298831 to 0.0298831
Heightened Def Con from 0.0298831 to 0.0298831
Heightened Def Con from 0.0298831 to 0.0298831
Heightened Def Con from 0.0298831 to 0.0298831
Heightened Def Con from 0.0298831 to 0.0298831
Heightened Def Con from 0.0298831 to 0.0298831
Heightened Def Con from 0.0298831 to 0.0298831
Heightened Def Con from 0.0298831 to 0.0298831
Heightened Def Con from 0.0298831 to 0.0298831
Heightened Def Con from 0.0298831 to 0.0298831
Heightened Def Con from 0.0298831 +to 0.0298831
Heightened Def Con from 0.0298831 ++++++to 0.0298831
Heightened Def Con from 0.0298831 +++to 0.0298831
Heightened Def Con from 0.0298831 +++to 0.0298831
Heightened Def Con from 0.0298831 +to 0.0298831
Heightened Def Con from 0.0298831 to 0.0298831
Heightened Def Con from 0.0298831 +to 0.0298831
Heightened Def Con from 0.0298831 to 0.0298831
Heightened Def Con from 0.0298831 ++to 0.0298831
Heightened Def Con from 0.0298831 to 0.0298831
Heightened Def Con from 0.0298831 to 0.0298831
Heightened Def Con from 0.0298831 to 0.0298831
Heightened Def Con from 0.0298831 ++++++++to 0.0298831
Heightened Def Con from 0.0298831 to 0.0298831
Heightened Def Con from 0.0298831 to 0.0298831
Heightened Def Con from 0.0298831 to 0.0298831
Heightened Def Con from 0.0298831 to 0.0298831
Heightened Def Con from 0.0298831 ++to 0.0298831
Heightened Def Con from 0.0298831 to 0.0298831
Heightened Def Con from 0.0298831 to 0.0298831
Heightened Def Con from 0.0298831 to 0.0298831
Heightened Def Con from 0.0298831 +to 0.0298831
Heightened Def Con from 0.0298831 to 0.0298831
Heightened Def Con from 0.0298831 ++to 0.0298831
Heightened Def Con from 0.0298831 to 0.0298831
Heightened Def Con from 0.0298831 +to 0.0298831
Heightened Def Con from 0.0298831 to 0.0298831
Heightened Def Con from 0.0298831 +to 0.0298831
Heightened Def Con from 0.0298831 to 0.0298831
Heightened Def Con from 0.0298831 ++to 0.0298831
Heightened Def Con from 0.0298831 +++++++to 0.0298831
Heightened Def Con from 0.0298831 to 0.0298831
Heightened Def Con from 0.0298831 ++to 0.0298831
Heightened Def Con from 0.0298831 to 0.0298831
Heightened Def Con from 0.0298831 +to 0.0298831
Heightened Def Con from 0.0298831 to 0.0298831
Heightened Def Con from 0.0298831 to 0.0298831
Heightened Def Con from 0.0298831 +to 0.0298831
Heightened Def Con from 0.0298831 to 0.0298831
Heightened Def Con from 0.0298831 +to 0.0298831
Heightened Def Con from 0.0298831 +to 0.0298831
Heightened Def Con from 0.0298831 to 0.0298831
Heightened Def Con from 0.0298831 to 0.0298831
Heightened Def Con from 0.0298831 ++to 0.0298831
Heightened Def Con from 0.0298831 to 0.0298831
Heightened Def Con from 0.0298831 to 0.0298831
Heightened Def Con from 0.0298831 to 0.0298831
Heightened Def Con from 0.0298831 +to 0.0298831
Heightened Def Con from 0.0298831 +to 0.0298831
Heightened Def Con from 0.0298831 +to 0.0298831
Heightened Def Con from 0.0298831 +to 0.0298831
Heightened Def Con from 0.0298831 +to 0.0298831
Heightened Def Con from 0.0298831 to 0.0298831
Heightened Def Con from 0.0298831 ++to 0.0298831
Heightened Def Con from 0.0298831 +to 0.0298831
Heightened Def Con from 0.0298831 +to 0.0298831
Heightened Def Con from 0.0298831 +++to 0.0298831
Heightened Def Con from 0.0298831 to 0.0298831
Heightened Def Con from 0.0298831 to 0.0298831
Heightened Def Con from 0.0298831 to 0.0298831
Heightened Def Con from 0.0298831 ++to 0.0298831
Heightened Def Con from 0.0298831 +to 0.0298831
Heightened Def Con from 0.0298831 +to 0.0298831
Heightened Def Con from 0.0298831 to 0.0298831
Heightened Def Con from 0.0298831 to 0.0298831
Heightened Def Con from 0.0298831 +++++++to 0.0298831
Heightened Def Con from 0.0298831 ++++++++to 0.0298831
Heightened Def Con from 0.0298831 +to 0.0298831
Heightened Def Con from 0.0298831 +to 0.0298831
Heightened Def Con from 0.0298831 to 0.0298831
Heightened Def Con from 0.0298831 +++++to 0.0298831
Heightened Def Con from 0.0298831 to 0.0298831
Heightened Def Con from 0.0298831 to 0.0298831
Heightened Def Con from 0.0298831 to 0.0298831
Heightened Def Con from 0.0298831 to 0.0298831
Heightened Def Con from 0.0298831 +to 0.0298831
Heightened Def Con from 0.0298831 ++to 0.0298831
Heightened Def Con from 0.0298831 to 0.0298831
Heightened Def Con from 0.0298831 to 0.0298831
Heightened Def Con from 0.0298831 to 0.0298831
Heightened Def Con from 0.0298831 to 0.0298831
Heightened Def Con from 0.0298831 +to 0.0298831
Heightened Def Con from 0.0298831 to 0.0298831
Heightened Def Con from 0.0298831 to 0.0298831
Heightened Def Con from 0.0298831 to 0.0298831
Heightened Def Con from 0.0298831 ++++to 0.0298831
Heightened Def Con from 0.0298991 to 0.0298991
Heightened Def Con from 0.0298991 ++to 0.0298991
Heightened Def Con from 0.0298991 to 0.0298991
Heightened Def Con from 0.0298991 to 0.0298991
Heightened Def Con from 0.0298991 to 0.0298991
Heightened Def Con from 0.0298991 +to 0.0298991
Heightened Def Con from 0.0298991 to 0.0298991
Heightened Def Con from 0.0298991 +++++++++++++++++++++to 0.0298991
Heightened Def Con from 0.0299203 +to 0.0299203
Heightened Def Con from 0.0299203 to 0.0299203
Heightened Def Con from 0.0299203 +to 0.0299203
Heightened Def Con from 0.0299203 +++to 0.0299203
Heightened Def Con from 0.0299203 to 0.0299203
Heightened Def Con from 0.0299203 +to 0.0299203
Heightened Def Con from 0.0299203 +++to 0.0299203
Heightened Def Con from 0.0299203 to 0.0299203
Heightened Def Con from 0.0299203 to 0.0299203
Heightened Def Con from 0.0299203 to 0.0299203
Heightened Def Con from 0.0299203 +to 0.0299203
Heightened Def Con from 0.0299203 +to 0.0299203
Heightened Def Con from 0.0299203 to 0.0299203
Heightened Def Con from 0.0299203 to 0.0299203
Heightened Def Con from 0.0299203 +++++++++++++++++++++to 0.0299203
Heightened Def Con from 0.0299362 to 0.0299362
Heightened Def Con from 0.0299362 to 0.0299362
Heightened Def Con from 0.0299362 to 0.0299362
Heightened Def Con from 0.0299362 to 0.0299362
Heightened Def Con from 0.0299362 to 0.0299362
Heightened Def Con from 0.0299362 to 0.0299362
Heightened Def Con from 0.0299362 to 0.0299362
Heightened Def Con from 0.0299362 to 0.0299362
Heightened Def Con from 0.0299362 to 0.0299362
Heightened Def Con from 0.0299362 to 0.0299362
Heightened Def Con from 0.0299362 to 0.0299362
Heightened Def Con from 0.0299362 to 0.0299362
Heightened Def Con from 0.0299362 ++to 0.0299362
Heightened Def Con from 0.0299362 to 0.0299362
Heightened Def Con from 0.0299362 to 0.0299362
Heightened Def Con from 0.0299362 to 0.0299362
Heightened Def Con from 0.0299362 to 0.0299362
Heightened Def Con from 0.0299362 to 0.0299362
Heightened Def Con from 0.0299362 to 0.0299362
Heightened Def Con from 0.0299362 +to 0.0299362
Heightened Def Con from 0.0299362 to 0.0299362
Heightened Def Con from 0.0299362 to 0.0299362
Heightened Def Con from 0.0299362 to 0.0299362
Heightened Def Con from 0.0299362 +to 0.0299362
Heightened Def Con from 0.0299362 to 0.0299362
Heightened Def Con from 0.0299362 to 0.0299362
Heightened Def Con from 0.0299362 to 0.0299362
Heightened Def Con from 0.0299362 to 0.0299362
Heightened Def Con from 0.0299362 +to 0.0299362
Heightened Def Con from 0.0299362 to 0.0299362
Heightened Def Con from 0.0299362 to 0.0299362
Heightened Def Con from 0.0299362 to 0.0299362
Heightened Def Con from 0.0299362 to 0.0299362
Heightened Def Con from 0.0299362 to 0.0299362
Heightened Def Con from 0.0299362 to 0.0299362
Heightened Def Con from 0.0299362 to 0.0299362
Heightened Def Con from 0.0299362 to 0.0299362
Heightened Def Con from 0.0299362 ++to 0.0299362
Heightened Def Con from 0.0299362 to 0.0299362
Heightened Def Con from 0.0299362 +to 0.0299362
Heightened Def Con from 0.0299362 to 0.0299362
Heightened Def Con from 0.0299362 to 0.0299362
Heightened Def Con from 0.0299362 to 0.0299362
Heightened Def Con from 0.0299362 +to 0.0299362
Heightened Def Con from 0.0299362 +++to 0.0299362
Heightened Def Con from 0.0299362 ++to 0.0299362
Heightened Def Con from 0.0299362 to 0.0299362
Heightened Def Con from 0.0299362 to 0.0299362
Heightened Def Con from 0.0299362 to 0.0299362
Heightened Def Con from 0.0299362 to 0.0299362
Heightened Def Con from 0.0299362 to 0.0299362
Heightened Def Con from 0.0299362 +to 0.0299362
Heightened Def Con from 0.0299362 to 0.0299362
Heightened Def Con from 0.0299362 ++++to 0.0299362
Heightened Def Con from 0.0299362 to 0.0299362
Heightened Def Con from 0.0299362 to 0.0299362
Heightened Def Con from 0.0299362 to 0.0299362
Heightened Def Con from 0.0299362 to 0.0299362
Heightened Def Con from 0.0299362 to 0.0299362
Heightened Def Con from 0.0299362 +to 0.0299362
Heightened Def Con from 0.0299362 to 0.0299362
Heightened Def Con from 0.0299362 to 0.0299362
Heightened Def Con from 0.0299362 to 0.0299362
Heightened Def Con from 0.0299362 to 0.0299362
Heightened Def Con from 0.0299362 to 0.0299362
Heightened Def Con from 0.0299362 to 0.0299362
Heightened Def Con from 0.0299362 to 0.0299362
Heightened Def Con from 0.0299362 to 0.0299362
Heightened Def Con from 0.0299362 to 0.0299362
Heightened Def Con from 0.0299362 to 0.0299362
Heightened Def Con from 0.0299362 +to 0.0299362
Heightened Def Con from 0.0299362 to 0.0299362
Heightened Def Con from 0.0299362 ++to 0.0299362
Heightened Def Con from 0.0299362 to 0.0299362
Heightened Def Con from 0.0299362 to 0.0299362
Heightened Def Con from 0.0299362 to 0.0299362
Heightened Def Con from 0.0299362 to 0.0299362
Heightened Def Con from 0.0299362 to 0.0299362
Heightened Def Con from 0.0299362 to 0.0299362
Heightened Def Con from 0.0299362 +to 0.0299362
Heightened Def Con from 0.0299362 to 0.0299362
Heightened Def Con from 0.0299362 to 0.0299362
Heightened Def Con from 0.0299362 to 0.0299362
Heightened Def Con from 0.0299362 to 0.0299362
Heightened Def Con from 0.0299362 to 0.0299362
Heightened Def Con from 0.0299362 ++++++++++to 0.0299362
Heightened Def Con from 0.0299574 ++++to 0.0299574
Heightened Def Con from 0.0299574 to 0.0299574
Heightened Def Con from 0.0299574 +to 0.0299574
Heightened Def Con from 0.0299574 +to 0.0299574
Heightened Def Con from 0.0299574 to 0.0299574
Heightened Def Con from 0.0299574 to 0.0299574
Heightened Def Con from 0.0299574 +to 0.0299574
Heightened Def Con from 0.0299574 to 0.0299574
Heightened Def Con from 0.0299574 ++++to 0.0299574
Heightened Def Con from 0.0299574 +to 0.0299574
Heightened Def Con from 0.0299574 +to 0.0299574
Heightened Def Con from 0.0299574 to 0.0299574
Heightened Def Con from 0.0299574 ++++to 0.0299574
Heightened Def Con from 0.0299574 ++to 0.0299574
Heightened Def Con from 0.0299574 to 0.0299574
Heightened Def Con from 0.0299574 ++++to 0.0299574
Heightened Def Con from 0.0299574 to 0.0299574
Heightened Def Con from 0.0299574 +to 0.0299574
Heightened Def Con from 0.0299574 to 0.0299574
Heightened Def Con from 0.0299574 to 0.0299574
Heightened Def Con from 0.0299574 to 0.0299574
Heightened Def Con from 0.0299574 +to 0.0299574
Heightened Def Con from 0.0299574 +to 0.0299574
Heightened Def Con from 0.0299574 to 0.0299574
Heightened Def Con from 0.0299574 to 0.0299574
Heightened Def Con from 0.0299574 to 0.0299574
Heightened Def Con from 0.0299574 to 0.0299574
Heightened Def Con from 0.0299574 to 0.0299574
Heightened Def Con from 0.0299574 ++to 0.0299574
Heightened Def Con from 0.0299574 ++to 0.0299574
Heightened Def Con from 0.0299574 ++to 0.0299574
Heightened Def Con from 0.0299734 +to 0.0299734
Heightened Def Con from 0.0299734 to 0.0299734
Heightened Def Con from 0.0299734 +to 0.0299734
Heightened Def Con from 0.0299734 to 0.0299734
Heightened Def Con from 0.0299734 to 0.0299734
Heightened Def Con from 0.0299734 to 0.0299734
Heightened Def Con from 0.0299734 +to 0.0299734
Heightened Def Con from 0.0299734 +to 0.0299734
Heightened Def Con from 0.0299734 to 0.0299734
Heightened Def Con from 0.0299734 to 0.0299734
Heightened Def Con from 0.0299734 to 0.0299734
Heightened Def Con from 0.0299734 to 0.0299734
Heightened Def Con from 0.0299734 to 0.0299734
Heightened Def Con from 0.0299734 to 0.0299734
Heightened Def Con from 0.0299734 to 0.0299734
Heightened Def Con from 0.0299734 to 0.0299734
Heightened Def Con from 0.0299734 to 0.0299734
Heightened Def Con from 0.0299734 ++++++++++++++++to 0.0299734
Heightened Def Con from 0.0299945 to 0.0299945
Heightened Def Con from 0.0299945 to 0.0299945
Heightened Def Con from 0.0299945 to 0.0299945
Heightened Def Con from 0.0299945 to 0.0299945
Heightened Def Con from 0.0299945 +++++to 0.0299945
Heightened Def Con from 0.0299945 to 0.0299945
Heightened Def Con from 0.0299945 to 0.0299945
Heightened Def Con from 0.0299945 +to 0.0299945
Heightened Def Con from 0.0299945 +to 0.0299945
Heightened Def Con from 0.0299945 +++to 0.0299945
Heightened Def Con from 0.0299945 to 0.0299945
Heightened Def Con from 0.0299945 to 0.0299945
Heightened Def Con from 0.0299945 to 0.0299945
Heightened Def Con from 0.0299945 to 0.0299945
Heightened Def Con from 0.0299945 ++to 0.0299945
Heightened Def Con from 0.0299945 to 0.0299945
Heightened Def Con from 0.0299945 to 0.0299945
Heightened Def Con from 0.0299945 to 0.0299945
Heightened Def Con from 0.0299945 to 0.0299945
Heightened Def Con from 0.0299945 to 0.0299945
Heightened Def Con from 0.0299945 to 0.0299945
Heightened Def Con from 0.0299945 to 0.0299945
Heightened Def Con from 0.0299945 ++to 0.0299945
Heightened Def Con from 0.0299945 ++to 0.0299945
Heightened Def Con from 0.0299945 to 0.0299945
Heightened Def Con from 0.0299945 to 0.0299945
Heightened Def Con from 0.0299945 +to 0.0299945
Heightened Def Con from 0.0299945 +to 0.0299945
Heightened Def Con from 0.0299945 to 0.0299945
Heightened Def Con from 0.0299945 to 0.0299945
Heightened Def Con from 0.0299945 to 0.0299945
Heightened Def Con from 0.0299945 ++to 0.0299945
Heightened Def Con from 0.0299945 to 0.0299945
Heightened Def Con from 0.0299945 to 0.0299945
Heightened Def Con from 0.0299945 to 0.0299945
Heightened Def Con from 0.0299945 to 0.0299945
Heightened Def Con from 0.0299945 to 0.0299945
Heightened Def Con from 0.0299945 ++to 0.0299945
Heightened Def Con from 0.0299945 to 0.0299945
Heightened Def Con from 0.0299945 to 0.0299945
Heightened Def Con from 0.0299945 to 0.0299945
Heightened Def Con from 0.0299945 to 0.0299945
Heightened Def Con from 0.0299945 ++to 0.0299945
Heightened Def Con from 0.0299945 to 0.0299945
Heightened Def Con from 0.0299945 ++to 0.0299945
Heightened Def Con from 0.0299945 to 0.0299945
Heightened Def Con from 0.0299945 +to 0.0299945
Heightened Def Con from 0.0299945 to 0.0299945
Heightened Def Con from 0.0299945 +to 0.0299945
Heightened Def Con from 0.0299945 +to 0.0299945
Heightened Def Con from 0.0299945 ++to 0.0299945
Heightened Def Con from 0.0299945 ++to 0.0299945
Heightened Def Con from 0.0299945 to 0.0299945
Heightened Def Con from 0.0299945 +to 0.0299945
Heightened Def Con from 0.0299945 to 0.0299945
Heightened Def Con from 0.0299945 to 0.0299945
Heightened Def Con from 0.0299945 to 0.0299945
Heightened Def Con from 0.0299945 to 0.0299945
Heightened Def Con from 0.0299945 to 0.0299945
Heightened Def Con from 0.0299945 +++to 0.0299945
Heightened Def Con from 0.0299945 ++to 0.0299945
Heightened Def Con from 0.0299945 +++to 0.0299945
Heightened Def Con from 0.0299945 ++++++++++++to 0.0299945

Date: Sat Feb 19 15:16:31 2022
Total elapsed time: 19.523 seconds.

tnom = 27
temp = 27
method = modified trap
totiter = 6584202
traniter = 6584195
tranpoints = 671098
accept = 174191
rejected = 550891
matrix size = 11
fillins = 0
solver = Normal
Matrix Compiler1: 674 bytes object code size  0.2/0.2/[0.1]
Matrix Compiler2: 935 bytes object code size  0.2/0.3/[0.1]

