Circuit: * D:\Code\PSPICE\Schematic\opamp.asc

Direct Newton iteration for .op point succeeded.

Date: Sat Feb 19 10:02:01 2022
Total elapsed time: 0.125 seconds.

tnom = 27
temp = 27
method = modified trap
totiter = 5580
traniter = 5572
tranpoints = 1285
accept = 945
rejected = 340
matrix size = 12
fillins = 2
solver = Normal
Matrix Compiler1: 776 bytes object code size  0.4/0.3/[0.1]
Matrix Compiler2: 1.15 KB object code size  0.3/0.3/[0.2]

