http transferring http://ptm.asu.edu/modelcard/LP/32nm_LP.pm to D:\Code\PSPICE\Schematic\32nm_LP.pm
Circuit: * D:\Code\PSPICE\Schematic\xor_pass.asc

Direct Newton iteration for .op point succeeded.

Date: Sat Feb 19 21:32:23 2022
Total elapsed time: 0.752 seconds.

tnom = 27
temp = 27
method = modified trap
totiter = 1575
traniter = 1560
tranpoints = 555
accept = 425
rejected = 130
matrix size = 33
fillins = 0
solver = Normal
Matrix Compiler1: 3.60 KB object code size  3.3/0.8/[0.3]
Matrix Compiler2: 3.83 KB object code size  0.6/0.9/[0.4]

