
**** 09/24/21 23:11:06 ****** PSpice 17.2.0 (March 2016) ****** ID# 0 ********

 LOW-PASS-FILTER


 ****     CIRCUIT DESCRIPTION


******************************************************************************



V1 1 0 AC 10
R1 1 2 680
L1 2 3 108E-3
L2 3 4 108E-3
C1 3 0 0.47E-6
R2 4 0 680
.AC LIN 100 1 5000
.PROBE
.END

**** 09/24/21 23:11:06 ****** PSpice 17.2.0 (March 2016) ****** ID# 0 ********

 LOW-PASS-FILTER


 ****     SMALL SIGNAL BIAS SOLUTION       TEMPERATURE =   27.000 DEG C


******************************************************************************



 NODE   VOLTAGE     NODE   VOLTAGE     NODE   VOLTAGE     NODE   VOLTAGE


(    1)    0.0000  (    2)    0.0000  (    3)    0.0000  (    4)    0.0000  




    VOLTAGE SOURCE CURRENTS
    NAME         CURRENT

    V1           0.000E+00

    TOTAL POWER DISSIPATION   0.00E+00  WATTS



          JOB CONCLUDED

**** 09/24/21 23:11:06 ****** PSpice 17.2.0 (March 2016) ****** ID# 0 ********

 LOW-PASS-FILTER


 ****     JOB STATISTICS SUMMARY


******************************************************************************



  Total job time (using Solver 1)   =         .02
