
**** 10/24/21 17:01:48 ****** PSpice 17.2.0 (March 2016) ****** ID# 0 ********

 TEST1


 ****     CIRCUIT DESCRIPTION


******************************************************************************



VGS 1 0
VDS 2 0
M1 2 1 0 0 NMOD
.MODEL NMOD NMOS (KP=0.5E-3 VTO=2)
.DC VDS 0 2 0.01 VGS 1.8 3 0.2
.PROBE
.END

**** 10/24/21 17:01:48 ****** PSpice 17.2.0 (March 2016) ****** ID# 0 ********

 TEST1


 ****     MOSFET MODEL PARAMETERS


******************************************************************************




               NMOD            
               NMOS            
       LEVEL    1            
           L  100.000000E-06 
           W  100.000000E-06 
         VTO    2            
          KP  500.000000E-06 
       GAMMA    0            
         PHI     .6          
      LAMBDA    0            
          IS   10.000000E-15 
          JS    0            
          PB     .8          
        PBSW     .8          
          CJ    0            
        CJSW    0            
        CGSO    0            
        CGDO    0            
        CGBO    0            
         TOX    0            
          XJ    0            
       UCRIT   10.000000E+03 
      DIOMOD    1            
         VFB    0            
        LETA    0            
        WETA    0            
          U0    0            
        TEMP    0            
         VDD    5            
       XPART    0            



          JOB CONCLUDED

**** 10/24/21 17:01:48 ****** PSpice 17.2.0 (March 2016) ****** ID# 0 ********

 TEST1


 ****     JOB STATISTICS SUMMARY


******************************************************************************



  Total job time (using Solver 1)   =         .14
