
**** 11/10/21 13:16:09 ******* PSpice Lite (March 2016) ******* ID# 10813 ****

 V_CHAR_CLIPPER


 ****     CIRCUIT DESCRIPTION


******************************************************************************



V1 1 0 DC 1
E 4 0 1 2 1E9
R1 2 4 10
D1 3 2 DMOD
D2 3 0 DMOD
.MODEL DMOD D(IS=10E-9 N=2 BV=5)
.DC V1 -20 20 0.1
.PROBE V(2)
.END

**** 11/10/21 13:16:09 ******* PSpice Lite (March 2016) ******* ID# 10813 ****

 V_CHAR_CLIPPER


 ****     Diode MODEL PARAMETERS


******************************************************************************




               DMOD            
          IS   10.000000E-09 
           N    2            
          BV    5            


ERROR -- Convergence problem in DC sweep


  Last node voltages tried were:

 NODE   VOLTAGE     NODE   VOLTAGE     NODE   VOLTAGE     NODE   VOLTAGE


(    1)  -18.7970  (    2)   -8.1564  (    3)   -6.1315  (    4)-10.00E+09  


  These voltages failed to converge:

    V(4)                      =   -10.00GV  \   -10.00GV

**** Interrupt ****
