
**** 09/24/21 18:01:52 ****** PSpice 17.2.0 (March 2016) ****** ID# 0 ********

 AC-PHASE-SHIFT


 ****     CIRCUIT DESCRIPTION


******************************************************************************



V1 1 0 SIN(0 1 60)
R1 1 2 1
R2 1 3 1
L1 2 0 1
R3 3 0 6.3E3
.TRAN 2.5E-3 4E-2 0
.PROBE
.END

**** 09/24/21 18:01:52 ****** PSpice 17.2.0 (March 2016) ****** ID# 0 ********

 AC-PHASE-SHIFT


 ****     INITIAL TRANSIENT SOLUTION       TEMPERATURE =   27.000 DEG C


******************************************************************************



 NODE   VOLTAGE     NODE   VOLTAGE     NODE   VOLTAGE     NODE   VOLTAGE


(    1)    0.0000  (    2)    0.0000  (    3)    0.0000  




    VOLTAGE SOURCE CURRENTS
    NAME         CURRENT

    V1           0.000E+00

    TOTAL POWER DISSIPATION   0.00E+00  WATTS



          JOB CONCLUDED

**** 09/24/21 18:01:52 ****** PSpice 17.2.0 (March 2016) ****** ID# 0 ********

 AC-PHASE-SHIFT


 ****     JOB STATISTICS SUMMARY


******************************************************************************



  Total job time (using Solver 1)   =        0.00
