
**** 09/24/21 14:38:55 ****** PSpice 17.2.0 (March 2016) ****** ID# 0 ********

 AC-RES-CAP


 ****     CIRCUIT DESCRIPTION


******************************************************************************



V1 1 0 SIN(0 12 60)
R1 1 2 30
C1 2 0 100E-6
.TRAN 0.01 0.01 0
.PROBE
.END

**** 09/24/21 14:38:55 ****** PSpice 17.2.0 (March 2016) ****** ID# 0 ********

 AC-RES-CAP


 ****     INITIAL TRANSIENT SOLUTION       TEMPERATURE =   27.000 DEG C


******************************************************************************



 NODE   VOLTAGE     NODE   VOLTAGE     NODE   VOLTAGE     NODE   VOLTAGE


(    1)    0.0000  (    2)    0.0000  




    VOLTAGE SOURCE CURRENTS
    NAME         CURRENT

    V1           0.000E+00

    TOTAL POWER DISSIPATION   0.00E+00  WATTS



          JOB CONCLUDED

**** 09/24/21 14:38:55 ****** PSpice 17.2.0 (March 2016) ****** ID# 0 ********

 AC-RES-CAP


 ****     JOB STATISTICS SUMMARY


******************************************************************************



  Total job time (using Solver 1)   =         .02
