
**** 09/24/21 18:53:04 ****** PSpice 17.2.0 (March 2016) ****** ID# 0 ********

 FULL-WAVE-BRIDGE-RECTIFER


 ****     CIRCUIT DESCRIPTION


******************************************************************************



V1 1 0 SIN(0 15 60)
D1 1 2 DMOD
D3 3 1 DMOD
D2 0 2 DMOD
D4 3 0 DMOD
RL 2 3 10E3
CL 2 3 100E-3
.MODEL DMOD D 
.TRAN 2.5E-3 5E-2 0
.PROBE
.END

**** 09/24/21 18:53:04 ****** PSpice 17.2.0 (March 2016) ****** ID# 0 ********

 FULL-WAVE-BRIDGE-RECTIFER


 ****     Diode MODEL PARAMETERS


******************************************************************************




               DMOD            
          IS   10.000000E-15 


**** 09/24/21 18:53:04 ****** PSpice 17.2.0 (March 2016) ****** ID# 0 ********

 FULL-WAVE-BRIDGE-RECTIFER


 ****     INITIAL TRANSIENT SOLUTION       TEMPERATURE =   27.000 DEG C


******************************************************************************



 NODE   VOLTAGE     NODE   VOLTAGE     NODE   VOLTAGE     NODE   VOLTAGE


(    1)    0.0000  (    2) 36.58E-21  (    3) 36.58E-21  




    VOLTAGE SOURCE CURRENTS
    NAME         CURRENT

    V1           0.000E+00

    TOTAL POWER DISSIPATION   0.00E+00  WATTS

Reducing minimum delta to make the circuit converge.
Reducing minimum delta to make the circuit converge.
Reducing minimum delta to make the circuit converge.
Reducing minimum delta to make the circuit converge.
Reducing minimum delta to make the circuit converge.

ERROR(ORPSIM-15138): Convergence problem in Transient Analysis at Time =  22.50E-06.
         Time step =  142.1E-21, minimum allowable step size =  1.000E-18



  Last node voltages tried were:

 NODE   VOLTAGE     NODE   VOLTAGE     NODE   VOLTAGE     NODE   VOLTAGE


(    1)     .1272  (    2)     .0582  (    3)     .0582  


**** Interrupt ****
