
**** 09/24/21 18:59:44 ****** PSpice 17.2.0 (March 2016) ****** ID# 0 ********

 INV-OPAMP


 ****     CIRCUIT DESCRIPTION


******************************************************************************



V1 2 0 DC 0
R1 2 1 1.18E3
R2 1 3 3.29E3
E1 3 0 0 1 999E3
.DC V1 3.5 0
------------$
ERROR(ORPSIM-16455): Missing parameter
.TRAN 0.05 2 0
.PROBE
.END
