
**** 09/24/21 19:01:19 ****** PSpice 17.2.0 (March 2016) ****** ID# 0 ********

 INV-OPAMP


 ****     CIRCUIT DESCRIPTION


******************************************************************************



V1 2 0 DC 0
R1 2 1 1.18E3
R2 1 3 3.29E3
E1 3 0 0 1 999E3
.DC V1 3.5 0 0.1
.PROBE
.END


          JOB CONCLUDED

**** 09/24/21 19:01:19 ****** PSpice 17.2.0 (March 2016) ****** ID# 0 ********

 INV-OPAMP


 ****     JOB STATISTICS SUMMARY


******************************************************************************



  Total job time (using Solver 1)   =         .02
