
**** 09/24/21 20:17:33 ****** PSpice 17.2.0 (March 2016) ****** ID# 0 ********

 NON-INV-OPAMP


 ****     CIRCUIT DESCRIPTION


******************************************************************************



R2 1 0 10E3
R1 1 3 20E3
R3 2 0 10E3
V1 2 0 DC 5
E1 3 0 2 1 999E3
.DC V1 5 5 1
.PRINT DC V(3)
.END

**** 09/24/21 20:17:33 ****** PSpice 17.2.0 (March 2016) ****** ID# 0 ********

 NON-INV-OPAMP


 ****     DC TRANSFER CURVES               TEMPERATURE =   27.000 DEG C


******************************************************************************



  V1          V(3)        

   5.000E+00   1.500E+01




          JOB CONCLUDED

**** 09/24/21 20:17:33 ****** PSpice 17.2.0 (March 2016) ****** ID# 0 ********

 NON-INV-OPAMP


 ****     JOB STATISTICS SUMMARY


******************************************************************************



  Total job time (using Solver 1)   =        0.00
