
**** 09/28/21 10:28:19 ****** PSpice 17.2.0 (March 2016) ****** ID# 0 ********

 OPAMP-INT-SQ-INP


 ****     CIRCUIT DESCRIPTION


******************************************************************************



VIN 1 0 PULSE(0 1 0 1E-9 1E-9 0.001 0.002)
R1 2 1 100
C1 2 3 100E-8
R2 2 3 200
.SUBCKT 1 2 3 4 OPAMP
E1 1 2 3 4 999E3
.ENDS
OPAMP 3 0 0 2
------------$
ERROR(ORPSIM-16015): Unknown parameter.
.TRAN 0.001 0.01 0
.PROBE
.END
