
**** 09/28/21 10:28:58 ****** PSpice 17.2.0 (March 2016) ****** ID# 0 ********

 OPAMP-INT-SQ-INP


 ****     CIRCUIT DESCRIPTION


******************************************************************************



VIN 1 0 PULSE(0 1 0 1E-9 1E-9 0.001 0.002)
R1 2 1 100
C1 2 3 100E-8
R2 2 3 200
.SUBCKT OPAMP 1 2 3 4
E1 1 2 3 4 999E3
.ENDS
X1 3 0 0 2 OPAMP
.TRAN 0.001 0.01 0
.PROBE
.END

**** 09/28/21 10:28:58 ****** PSpice 17.2.0 (March 2016) ****** ID# 0 ********

 OPAMP-INT-SQ-INP


 ****     INITIAL TRANSIENT SOLUTION       TEMPERATURE =   27.000 DEG C


******************************************************************************



 NODE   VOLTAGE     NODE   VOLTAGE     NODE   VOLTAGE     NODE   VOLTAGE


(    1)    0.0000  (    2)    0.0000  (    3)    0.0000  




    VOLTAGE SOURCE CURRENTS
    NAME         CURRENT

    VIN          0.000E+00

    TOTAL POWER DISSIPATION   0.00E+00  WATTS



          JOB CONCLUDED

**** 09/28/21 10:28:58 ****** PSpice 17.2.0 (March 2016) ****** ID# 0 ********

 OPAMP-INT-SQ-INP


 ****     JOB STATISTICS SUMMARY


******************************************************************************



  Total job time (using Solver 1)   =         .05
