
**** 09/13/21 09:29:36 ****** PSpice 17.2.0 (March 2016) ****** ID# 0 ********

 eg16.8


 ****     CIRCUIT DESCRIPTION


******************************************************************************



R1 1 0 2
C1 1 0 0.125 IC=6
.TRAN 0.05 1 0 UIC
.PLOT TRAN V(1)
.END

**** 09/13/21 09:29:36 ****** PSpice 17.2.0 (March 2016) ****** ID# 0 ********

 eg16.8


 ****     TRANSIENT ANALYSIS               TEMPERATURE =   27.000 DEG C


******************************************************************************



  TIME        V(1)        
(*)----------    0.0000E+00   2.0000E+00   4.0000E+00   6.0000E+00   8.0000E+00
                       _ _ _ _ _ _ _ _ _ _ _ _ _ _ _ _ _ _ _ _ _ _ _ _ _ _ _
  0.000E+00  6.000E+00 .            .            .            *            .
  5.000E-02  4.915E+00 .            .            .     *      .            .
  1.000E-01  4.024E+00 .            .            *            .            .
  1.500E-01  3.294E+00 .            .       *    .            .            .
  2.000E-01  2.697E+00 .            .    *       .            .            .
  2.500E-01  2.207E+00 .            .*           .            .            .
  3.000E-01  1.807E+00 .           *.            .            .            .
  3.500E-01  1.479E+00 .         *  .            .            .            .
  4.000E-01  1.211E+00 .       *    .            .            .            .
  4.500E-01  9.914E-01 .     *      .            .            .            .
  5.000E-01  8.117E-01 .    *       .            .            .            .
  5.500E-01  6.644E-01 .   *        .            .            .            .
  6.000E-01  5.440E-01 .   *        .            .            .            .
  6.500E-01  4.453E-01 .  *         .            .            .            .
  7.000E-01  3.646E-01 . *          .            .            .            .
  7.500E-01  2.984E-01 . *          .            .            .            .
  8.000E-01  2.443E-01 . *          .            .            .            .
  8.500E-01  2.000E-01 .*           .            .            .            .
  9.000E-01  1.637E-01 .*           .            .            .            .
  9.500E-01  1.340E-01 .*           .            .            .            .
  1.000E+00  1.097E-01 .*           .            .            .            .
                       - - - - - - - - - - - - - - - - - - - - - - - - - - - 




          JOB CONCLUDED

**** 09/13/21 09:29:36 ****** PSpice 17.2.0 (March 2016) ****** ID# 0 ********

 eg16.8


 ****     JOB STATISTICS SUMMARY


******************************************************************************



  Total job time (using Solver 1)   =         .02
