
**** 09/19/21 12:41:47 ****** PSpice 17.2.0 (March 2016) ****** ID# 0 ********

 EG16.11


 ****     CIRCUIT DESCRIPTION


******************************************************************************



V1 1 0 PULSE(0 1 0 0.001)
R1 1 2 1
L1 2 0 4
C1 2 0 1
.TRAN 0.01 10 0
.PROBE
.END

**** 09/19/21 12:41:47 ****** PSpice 17.2.0 (March 2016) ****** ID# 0 ********

 EG16.11


 ****     INITIAL TRANSIENT SOLUTION       TEMPERATURE =   27.000 DEG C


******************************************************************************



 NODE   VOLTAGE     NODE   VOLTAGE     NODE   VOLTAGE     NODE   VOLTAGE


(    1)    0.0000  (    2)    0.0000  




    VOLTAGE SOURCE CURRENTS
    NAME         CURRENT

    V1           0.000E+00

    TOTAL POWER DISSIPATION   0.00E+00  WATTS



          JOB CONCLUDED

**** 09/19/21 12:41:47 ****** PSpice 17.2.0 (March 2016) ****** ID# 0 ********

 EG16.11


 ****     JOB STATISTICS SUMMARY


******************************************************************************



  Total job time (using Solver 1)   =         .03
