
**** 10/24/21 17:08:05 ****** PSpice 17.2.0 (March 2016) ****** ID# 0 ********

 EG16.29


 ****     CIRCUIT DESCRIPTION


******************************************************************************



VDD 3 0 DC 12
M1 2 1 3 3 PMOD
M2 2 1 0 0 NMOD
.MODEL PMOD PMOS (KP=0.5E-3 VTO=-2)
.MODEL NMOD NMOS (KP=0.5E-3 VTO=2)
VG 1 0
.DC VG 0 12 0.01
.PROBE
.END

**** 10/24/21 17:08:05 ****** PSpice 17.2.0 (March 2016) ****** ID# 0 ********

 EG16.29


 ****     MOSFET MODEL PARAMETERS


******************************************************************************




               PMOD            NMOD            
               PMOS            NMOS            
       LEVEL    1               1            
           L  100.000000E-06  100.000000E-06 
           W  100.000000E-06  100.000000E-06 
         VTO   -2               2            
          KP  500.000000E-06  500.000000E-06 
       GAMMA    0               0            
         PHI     .6              .6          
      LAMBDA    0               0            
          IS   10.000000E-15   10.000000E-15 
          JS    0               0            
          PB     .8              .8          
        PBSW     .8              .8          
          CJ    0               0            
        CJSW    0               0            
        CGSO    0               0            
        CGDO    0               0            
        CGBO    0               0            
         TOX    0               0            
          XJ    0               0            
       UCRIT   10.000000E+03   10.000000E+03 
      DIOMOD    1               1            
         VFB    0               0            
        LETA    0               0            
        WETA    0               0            
          U0    0               0            
        TEMP    0               0            
         VDD    5               5            
       XPART    0               0            



          JOB CONCLUDED

**** 10/24/21 17:08:05 ****** PSpice 17.2.0 (March 2016) ****** ID# 0 ********

 EG16.29


 ****     JOB STATISTICS SUMMARY


******************************************************************************



  Total job time (using Solver 1)   =         .03
