
**** 09/13/21 09:49:29 ****** PSpice 17.2.0 (March 2016) ****** ID# 0 ********

 eg16.15


 ****     CIRCUIT DESCRIPTION


******************************************************************************



V1 1 0 AC 1
C1 1 2 0.16E-6
R1 2 0 1E3
.AC LIN 100 1 5000
.PROBE
.END

**** 09/13/21 09:49:29 ****** PSpice 17.2.0 (March 2016) ****** ID# 0 ********

 eg16.15


 ****     SMALL SIGNAL BIAS SOLUTION       TEMPERATURE =   27.000 DEG C


******************************************************************************



 NODE   VOLTAGE     NODE   VOLTAGE     NODE   VOLTAGE     NODE   VOLTAGE


(    1)    0.0000  (    2)    0.0000  




    VOLTAGE SOURCE CURRENTS
    NAME         CURRENT

    V1           0.000E+00

    TOTAL POWER DISSIPATION   0.00E+00  WATTS



          JOB CONCLUDED

**** 09/13/21 09:49:29 ****** PSpice 17.2.0 (March 2016) ****** ID# 0 ********

 eg16.15


 ****     JOB STATISTICS SUMMARY


******************************************************************************



  Total job time (using Solver 1)   =         .03
