
**** 10/24/21 16:38:39 ****** PSpice 17.2.0 (March 2016) ****** ID# 0 ********

 EG16.27


 ****     CIRCUIT DESCRIPTION


******************************************************************************



V1 1 0 DC 12
M1 1 1 2 2 NMOD
M2 2 3 0 0 NMOD
VG 3 0 DC 12
.MODEL NMOD NMOS (KP=0.5E-3 VTO=2)
.OP
.END

**** 10/24/21 16:38:39 ****** PSpice 17.2.0 (March 2016) ****** ID# 0 ********

 EG16.27


 ****     MOSFET MODEL PARAMETERS


******************************************************************************




               NMOD            
               NMOS            
       LEVEL    1            
           L  100.000000E-06 
           W  100.000000E-06 
         VTO    2            
          KP  500.000000E-06 
       GAMMA    0            
         PHI     .6          
      LAMBDA    0            
          IS   10.000000E-15 
          JS    0            
          PB     .8          
        PBSW     .8          
          CJ    0            
        CJSW    0            
        CGSO    0            
        CGDO    0            
        CGBO    0            
         TOX    0            
          XJ    0            
       UCRIT   10.000000E+03 
      DIOMOD    1            
         VFB    0            
        LETA    0            
        WETA    0            
          U0    0            
        TEMP    0            
         VDD    5            
       XPART    0            


**** 10/24/21 16:38:39 ****** PSpice 17.2.0 (March 2016) ****** ID# 0 ********

 EG16.27


 ****     SMALL SIGNAL BIAS SOLUTION       TEMPERATURE =   27.000 DEG C


******************************************************************************



 NODE   VOLTAGE     NODE   VOLTAGE     NODE   VOLTAGE     NODE   VOLTAGE


(    1)   12.0000  (    2)    2.9289  (    3)   12.0000  




    VOLTAGE SOURCE CURRENTS
    NAME         CURRENT

    V1          -1.250E-02
    VG           0.000E+00

    TOTAL POWER DISSIPATION   1.50E-01  WATTS


**** 10/24/21 16:38:39 ****** PSpice 17.2.0 (March 2016) ****** ID# 0 ********

 EG16.27


 ****     OPERATING POINT INFORMATION      TEMPERATURE =   27.000 DEG C


******************************************************************************






**** MOSFETS


NAME         M1          M2        
MODEL        NMOD        NMOD      
ID           1.25E-02    1.25E-02 
VGS          9.07E+00    1.20E+01 
VDS          9.07E+00    2.93E+00 
VBS          0.00E+00    0.00E+00 
VTH          2.00E+00    2.00E+00 
VDSAT        7.07E+00    1.00E+01 
Lin0/Sat1   -1.00E+00   -1.00E+00 
if          -1.00E+00   -1.00E+00 
ir          -1.00E+00   -1.00E+00 
TAU         -1.00E+00   -1.00E+00 
GM           3.54E-03    1.46E-03 
GDS          0.00E+00    3.54E-03 
GMB          0.00E+00    0.00E+00 
CBD          0.00E+00    0.00E+00 
CBS          0.00E+00    0.00E+00 
CGSOV        0.00E+00    0.00E+00 
CGDOV        0.00E+00    0.00E+00 
CGBOV        0.00E+00    0.00E+00 
CGS          0.00E+00    0.00E+00 
CGD          0.00E+00    0.00E+00 
CGB          0.00E+00    0.00E+00 

          JOB CONCLUDED

**** 10/24/21 16:38:39 ****** PSpice 17.2.0 (March 2016) ****** ID# 0 ********

 EG16.27


 ****     JOB STATISTICS SUMMARY


******************************************************************************



  Total job time (using Solver 1)   =        0.00
