
**** 09/19/21 17:21:32 ****** PSpice 17.2.0 (March 2016) ****** ID# 0 ********

 eg16.19


 ****     CIRCUIT DESCRIPTION


******************************************************************************



V1 1 0 SIN(0 24 1)
R1 1 2 1E3
D1 2 3 DMOD
D2 0 3 DMOD
.MODEL DMOD D (IS=10E-9 N=2 BV=12)
.TRAN 0.01 2
.PROBE
.END

**** 09/19/21 17:21:32 ****** PSpice 17.2.0 (March 2016) ****** ID# 0 ********

 eg16.19


 ****     Diode MODEL PARAMETERS


******************************************************************************




               DMOD            
          IS   10.000000E-09 
           N    2            
          BV   12            


**** 09/19/21 17:21:32 ****** PSpice 17.2.0 (March 2016) ****** ID# 0 ********

 eg16.19


 ****     INITIAL TRANSIENT SOLUTION       TEMPERATURE =   27.000 DEG C


******************************************************************************



 NODE   VOLTAGE     NODE   VOLTAGE     NODE   VOLTAGE     NODE   VOLTAGE


(    1)    0.0000  (    2)    0.0000  (    3) 1.503E-18  




    VOLTAGE SOURCE CURRENTS
    NAME         CURRENT

    V1           0.000E+00

    TOTAL POWER DISSIPATION   0.00E+00  WATTS



          JOB CONCLUDED

**** 09/19/21 17:21:32 ****** PSpice 17.2.0 (March 2016) ****** ID# 0 ********

 eg16.19


 ****     JOB STATISTICS SUMMARY


******************************************************************************



  Total job time (using Solver 1)   =         .03
