
**** 09/13/21 09:32:38 ****** PSpice 17.2.0 (March 2016) ****** ID# 0 ********

 eg16.9


 ****     CIRCUIT DESCRIPTION


******************************************************************************



R1 1 0 2
L1 1 2 1 IC=-0.32
C1 2 0 0.02 IC=2
.TRAN 0.05 3 0 UIC
.PROBE
.END


          JOB CONCLUDED

**** 09/13/21 09:32:38 ****** PSpice 17.2.0 (March 2016) ****** ID# 0 ********

 eg16.9


 ****     JOB STATISTICS SUMMARY


******************************************************************************



  Total job time (using Solver 1)   =         .02
