
**** 09/19/21 17:24:05 ****** PSpice 17.2.0 (March 2016) ****** ID# 0 ********

 EG16.16


 ****     CIRCUIT DESCRIPTION


******************************************************************************



V1 1 0 AC 1
R1 1 2 1E3
C1 2 0 0.16E-6
.AC DEC 100 2E3 1
----------------$
ERROR(ORPSIM-16103): Invalid value
.PROBE
.END
