
**** 09/13/21 10:10:39 ****** PSpice 17.2.0 (March 2016) ****** ID# 0 ********

 eg16.18


 ****     CIRCUIT DESCRIPTION


******************************************************************************



V1 1 0 DC 0
D1 1 0 DMOD
.MODEL DMOD D (Is=1n N=2)
.DC V1 0 1 0.01
.PROBE
.END

**** 09/13/21 10:10:39 ****** PSpice 17.2.0 (March 2016) ****** ID# 0 ********

 eg16.18


 ****     Diode MODEL PARAMETERS


******************************************************************************




               DMOD            
          IS    1.000000E-09 
           N    2            



          JOB CONCLUDED

**** 09/13/21 10:10:39 ****** PSpice 17.2.0 (March 2016) ****** ID# 0 ********

 eg16.18


 ****     JOB STATISTICS SUMMARY


******************************************************************************



  Total job time (using Solver 1)   =         .31
