
**** 10/24/21 20:04:38 ****** PSpice 17.2.0 (March 2016) ****** ID# 0 ********

 EG16.36


 ****     CIRCUIT DESCRIPTION


******************************************************************************



R1 1 5 6.5E3
R2 1 2 188.5E3
C1 3 2 1E-9 IC=5
C2 4 3 1E-9
C3 5 4 1E-9
R3 3 0 6.5E3
R4 4 0 6.5E3
E 2 0 0 1 10E6
.TRAN 1E-6 800E-6 UIC
.PROBE
.END 


          JOB CONCLUDED

**** 10/24/21 20:04:38 ****** PSpice 17.2.0 (March 2016) ****** ID# 0 ********

 EG16.36


 ****     JOB STATISTICS SUMMARY


******************************************************************************



  Total job time (using Solver 1)   =         .02
