
**** 09/19/21 17:04:56 ****** PSpice 17.2.0 (March 2016) ****** ID# 0 ********

 eg16.12


 ****     CIRCUIT DESCRIPTION


******************************************************************************



V1 1 0 EXP(0 10 1 10 50 10)
R1 1 0 1
.TRAN 0.01 100 0
.PROBE
.END

**** 09/19/21 17:04:56 ****** PSpice 17.2.0 (March 2016) ****** ID# 0 ********

 eg16.12


 ****     INITIAL TRANSIENT SOLUTION       TEMPERATURE =   27.000 DEG C


******************************************************************************



 NODE   VOLTAGE     NODE   VOLTAGE     NODE   VOLTAGE     NODE   VOLTAGE


(    1)    0.0000  




    VOLTAGE SOURCE CURRENTS
    NAME         CURRENT

    V1           0.000E+00

    TOTAL POWER DISSIPATION   0.00E+00  WATTS



          JOB CONCLUDED

**** 09/19/21 17:04:56 ****** PSpice 17.2.0 (March 2016) ****** ID# 0 ********

 eg16.12


 ****     JOB STATISTICS SUMMARY


******************************************************************************



  Total job time (using Solver 1)   =         .06
