
**** 09/19/21 12:34:34 ****** PSpice 17.2.0 (March 2016) ****** ID# 0 ********

 EG16.10


 ****     CIRCUIT DESCRIPTION


******************************************************************************



V1 1 0 PWL(0 0 0.001 1 15 1)
R 1 2 2
C 2 0 2
.TRAN 0.1 15 0
.END

**** 09/19/21 12:34:34 ****** PSpice 17.2.0 (March 2016) ****** ID# 0 ********

 EG16.10


 ****     INITIAL TRANSIENT SOLUTION       TEMPERATURE =   27.000 DEG C


******************************************************************************



 NODE   VOLTAGE     NODE   VOLTAGE     NODE   VOLTAGE     NODE   VOLTAGE


(    1)    0.0000  (    2)    0.0000  




    VOLTAGE SOURCE CURRENTS
    NAME         CURRENT

    V1           0.000E+00

    TOTAL POWER DISSIPATION   0.00E+00  WATTS



          JOB CONCLUDED

**** 09/19/21 12:34:34 ****** PSpice 17.2.0 (March 2016) ****** ID# 0 ********

 EG16.10


 ****     JOB STATISTICS SUMMARY


******************************************************************************



  Total job time (using Solver 1)   =         .02
