
**** 10/24/21 16:44:22 ****** PSpice 17.2.0 (March 2016) ****** ID# 0 ********

 EG16.28


 ****     CIRCUIT DESCRIPTION


******************************************************************************



VGS 1 0
VDS 2 0
M 2 1 0 0 IRF150
.LIB EVAL.LIB
.DC VDS 0 1 0.01 VGS 2.8 3.3 0.1
.PROBE
.END

**** 10/24/21 16:44:22 ****** PSpice 17.2.0 (March 2016) ****** ID# 0 ********

 EG16.28


 ****     MOSFET MODEL PARAMETERS


******************************************************************************




               IRF150          
               NMOS            
       LEVEL    3            
           L    2.000000E-06 
           W     .3          
         VTO    2.831        
          KP   20.530000E-06 
       GAMMA    0            
         PHI     .6          
      LAMBDA    0            
          RD    1.031000E-03 
          RS    1.624000E-03 
          RG   13.89         
         RDS  444.400000E+03 
          IS  194.000000E-18 
          JS    0            
          PB     .8          
        PBSW     .8          
         CBD    3.229000E-09 
          CJ    0            
        CJSW    0            
          TT  288.000000E-09 
        CGSO    9.027000E-09 
        CGDO    1.679000E-09 
        CGBO    0            
         TOX  100.000000E-09 
          XJ    0            
       UCRIT   10.000000E+03 
       DELTA    0            
         ETA    0            
       KAPPA    1.000000E-12 
      DIOMOD    1            
         VFB    0            
        LETA    0            
        WETA    0            
          U0    0            
        TEMP    0            
         VDD    5            
       XPART    0            



          JOB CONCLUDED

**** 10/24/21 16:44:22 ****** PSpice 17.2.0 (March 2016) ****** ID# 0 ********

 EG16.28


 ****     JOB STATISTICS SUMMARY


******************************************************************************



  Total job time (using Solver 1)   =         .11
