
**** 09/19/21 12:47:34 ****** PSpice 17.2.0 (March 2016) ****** ID# 0 ********

 eg16.12


 ****     CIRCUIT DESCRIPTION


******************************************************************************



V1 1 0 EXP(0 1 0.25 1)
R1 1 0 10
.TRAN 0.01 15 0
.PLOT TRAN V(1)
.END

**** 09/19/21 12:47:34 ****** PSpice 17.2.0 (March 2016) ****** ID# 0 ********

 eg16.12


 ****     INITIAL TRANSIENT SOLUTION       TEMPERATURE =   27.000 DEG C


******************************************************************************



 NODE   VOLTAGE     NODE   VOLTAGE     NODE   VOLTAGE     NODE   VOLTAGE


(    1)    0.0000  




    VOLTAGE SOURCE CURRENTS
    NAME         CURRENT

    V1           0.000E+00

    TOTAL POWER DISSIPATION   0.00E+00  WATTS


**** 09/19/21 12:47:34 ****** PSpice 17.2.0 (March 2016) ****** ID# 0 ********

 eg16.12


 ****     TRANSIENT ANALYSIS               TEMPERATURE =   27.000 DEG C


******************************************************************************



  TIME        V(1)        
(*)----------   -1.0000E+00  -5.0000E-01   0.0000E+00   5.0000E-01   1.0000E+00
                       _ _ _ _ _ _ _ _ _ _ _ _ _ _ _ _ _ _ _ _ _ _ _ _ _ _ _
  0.000E+00  0.000E+00 .            .            *            .            .
  1.000E-02  0.000E+00 .            .            *            .            .
  2.000E-02  0.000E+00 .            .            *            .            .
  3.000E-02  0.000E+00 .            .            *            .            .
  4.000E-02  0.000E+00 .            .            *            .            .
  5.000E-02  0.000E+00 .            .            *            .            .
  6.000E-02  0.000E+00 .            .            *            .            .
  7.000E-02  0.000E+00 .            .            *            .            .
  8.000E-02  0.000E+00 .            .            *            .            .
  9.000E-02  0.000E+00 .            .            *            .            .
  1.000E-01  0.000E+00 .            .            *            .            .
  1.100E-01  0.000E+00 .            .            *            .            .
  1.200E-01  0.000E+00 .            .            *            .            .
  1.300E-01  0.000E+00 .            .            *            .            .
  1.400E-01  0.000E+00 .            .            *            .            .
  1.500E-01  0.000E+00 .            .            *            .            .
  1.600E-01  0.000E+00 .            .            *            .            .
  1.700E-01  0.000E+00 .            .            *            .            .
  1.800E-01  0.000E+00 .            .            *            .            .
  1.900E-01  0.000E+00 .            .            *            .            .
  2.000E-01  0.000E+00 .            .            *            .            .
  2.100E-01  0.000E+00 .            .            *            .            .
  2.200E-01  0.000E+00 .            .            *            .            .
  2.300E-01  0.000E+00 .            .            *            .            .
  2.400E-01  0.000E+00 .            .            *            .            .
  2.500E-01  3.000E-11 .            .            *            .            .
  2.600E-01  9.950E-03 .            .            *            .            .
  2.700E-01 -5.946E-01 .          * .            .            .            .
  2.800E-01 -8.216E-01 .    *       .            .            .            .
  2.900E-01 -9.060E-01 . *          .            .            .            .
  3.000E-01 -9.311E-01 . *          .            .            .            .
  3.100E-01 -9.344E-01 . *          .            .            .            .
  3.200E-01 -9.297E-01 . *          .            .            .            .
  3.300E-01 -9.221E-01 . *          .            .            .            .
  3.400E-01 -9.136E-01 . *          .            .            .            .
  3.500E-01 -9.047E-01 . *          .            .            .            .
  3.600E-01 -8.958E-01 .  *         .            .            .            .
  3.700E-01 -8.869E-01 .  *         .            .            .            .
  3.800E-01 -8.781E-01 .  *         .            .            .            .
  3.900E-01 -8.694E-01 .  *         .            .            .            .
  4.000E-01 -8.607E-01 .   *        .            .            .            .
  4.100E-01 -8.522E-01 .   *        .            .            .            .
  4.200E-01 -8.437E-01 .   *        .            .            .            .
  4.300E-01 -8.353E-01 .   *        .            .            .            .
  4.400E-01 -8.270E-01 .   *        .            .            .            .
  4.500E-01 -8.187E-01 .    *       .            .            .            .
  4.600E-01 -8.106E-01 .    *       .            .            .            .
  4.700E-01 -8.025E-01 .    *       .            .            .            .
  4.800E-01 -7.945E-01 .    *       .            .            .            .
  4.900E-01 -7.866E-01 .     *      .            .            .            .
  5.000E-01 -7.788E-01 .     *      .            .            .            .
  5.100E-01 -7.711E-01 .     *      .            .            .            .
  5.200E-01 -7.634E-01 .     *      .            .            .            .
  5.300E-01 -7.558E-01 .     *      .            .            .            .
  5.400E-01 -7.483E-01 .      *     .            .            .            .
  5.500E-01 -7.408E-01 .      *     .            .            .            .
  5.600E-01 -7.335E-01 .      *     .            .            .            .
  5.700E-01 -7.262E-01 .      *     .            .            .            .
  5.800E-01 -7.189E-01 .      *     .            .            .            .
  5.900E-01 -7.118E-01 .      *     .            .            .            .
  6.000E-01 -7.047E-01 .       *    .            .            .            .
  6.100E-01 -6.977E-01 .       *    .            .            .            .
  6.200E-01 -6.907E-01 .       *    .            .            .            .
  6.300E-01 -6.839E-01 .       *    .            .            .            .
  6.400E-01 -6.771E-01 .       *    .            .            .            .
  6.500E-01 -6.703E-01 .        *   .            .            .            .
  6.600E-01 -6.637E-01 .        *   .            .            .            .
  6.700E-01 -6.571E-01 .        *   .            .            .            .
  6.800E-01 -6.505E-01 .        *   .            .            .            .
  6.900E-01 -6.440E-01 .        *   .            .            .            .
  7.000E-01 -6.376E-01 .        *   .            .            .            .
  7.100E-01 -6.313E-01 .         *  .            .            .            .
  7.200E-01 -6.250E-01 .         *  .            .            .            .
  7.300E-01 -6.188E-01 .         *  .            .            .            .
  7.400E-01 -6.126E-01 .         *  .            .            .            .
  7.500E-01 -6.065E-01 .         *  .            .            .            .
  7.600E-01 -6.005E-01 .         *  .            .            .            .
  7.700E-01 -5.945E-01 .          * .            .            .            .
  7.800E-01 -5.886E-01 .          * .            .            .            .
  7.900E-01 -5.828E-01 .          * .            .            .            .
  8.000E-01 -5.770E-01 .          * .            .            .            .
  8.100E-01 -5.712E-01 .          * .            .            .            .
  8.200E-01 -5.655E-01 .          * .            .            .            .
  8.300E-01 -5.599E-01 .          * .            .            .            .
  8.400E-01 -5.543E-01 .           *.            .            .            .
  8.500E-01 -5.488E-01 .           *.            .            .            .
  8.600E-01 -5.434E-01 .           *.            .            .            .
  8.700E-01 -5.379E-01 .           *.            .            .            .
  8.800E-01 -5.326E-01 .           *.            .            .            .
  8.900E-01 -5.273E-01 .           *.            .            .            .
  9.000E-01 -5.221E-01 .           *.            .            .            .
  9.100E-01 -5.169E-01 .            *            .            .            .
  9.200E-01 -5.117E-01 .            *            .            .            .
  9.300E-01 -5.066E-01 .            *            .            .            .
  9.400E-01 -5.016E-01 .            *            .            .            .
  9.500E-01 -4.966E-01 .            *            .            .            .
  9.600E-01 -4.916E-01 .            *            .            .            .
  9.700E-01 -4.868E-01 .            *            .            .            .
  9.800E-01 -4.819E-01 .            *            .            .            .
  9.900E-01 -4.771E-01 .            .*           .            .            .
  1.000E+00 -4.724E-01 .            .*           .            .            .
  1.010E+00 -4.677E-01 .            .*           .            .            .
  1.020E+00 -4.630E-01 .            .*           .            .            .
  1.030E+00 -4.584E-01 .            .*           .            .            .
  1.040E+00 -4.538E-01 .            .*           .            .            .
  1.050E+00 -4.493E-01 .            .*           .            .            .
  1.060E+00 -4.449E-01 .            .*           .            .            .
  1.070E+00 -4.404E-01 .            . *          .            .            .
  1.080E+00 -4.361E-01 .            . *          .            .            .
  1.090E+00 -4.317E-01 .            . *          .            .            .
  1.100E+00 -4.274E-01 .            . *          .            .            .
  1.110E+00 -4.232E-01 .            . *          .            .            .
  1.120E+00 -4.190E-01 .            . *          .            .            .
  1.130E+00 -4.148E-01 .            . *          .            .            .
  1.140E+00 -4.107E-01 .            . *          .            .            .
  1.150E+00 -4.066E-01 .            . *          .            .            .
  1.160E+00 -4.025E-01 .            .  *         .            .            .
  1.170E+00 -3.985E-01 .            .  *         .            .            .
  1.180E+00 -3.946E-01 .            .  *         .            .            .
  1.190E+00 -3.906E-01 .            .  *         .            .            .
  1.200E+00 -3.867E-01 .            .  *         .            .            .
  1.210E+00 -3.829E-01 .            .  *         .            .            .
  1.220E+00 -3.791E-01 .            .  *         .            .            .
  1.230E+00 -3.753E-01 .            .  *         .            .            .
  1.240E+00 -3.716E-01 .            .  *         .            .            .
  1.250E+00 -3.679E-01 .            .  *         .            .            .
  1.260E+00 -3.642E-01 .            .   *        .            .            .
  1.270E+00 -3.606E-01 .            .   *        .            .            .
  1.280E+00 -3.570E-01 .            .   *        .            .            .
  1.290E+00 -3.535E-01 .            .   *        .            .            .
  1.300E+00 -3.499E-01 .            .   *        .            .            .
  1.310E+00 -3.465E-01 .            .   *        .            .            .
  1.320E+00 -3.430E-01 .            .   *        .            .            .
  1.330E+00 -3.396E-01 .            .   *        .            .            .
  1.340E+00 -3.362E-01 .            .   *        .            .            .
  1.350E+00 -3.329E-01 .            .   *        .            .            .
  1.360E+00 -3.296E-01 .            .   *        .            .            .
  1.370E+00 -3.263E-01 .            .    *       .            .            .
  1.380E+00 -3.230E-01 .            .    *       .            .            .
  1.390E+00 -3.198E-01 .            .    *       .            .            .
  1.400E+00 -3.166E-01 .            .    *       .            .            .
  1.410E+00 -3.135E-01 .            .    *       .            .            .
  1.420E+00 -3.104E-01 .            .    *       .            .            .
  1.430E+00 -3.073E-01 .            .    *       .            .            .
  1.440E+00 -3.042E-01 .            .    *       .            .            .
  1.450E+00 -3.012E-01 .            .    *       .            .            .
  1.460E+00 -2.982E-01 .            .    *       .            .            .
  1.470E+00 -2.952E-01 .            .    *       .            .            .
  1.480E+00 -2.923E-01 .            .    *       .            .            .
  1.490E+00 -2.894E-01 .            .    *       .            .            .
  1.500E+00 -2.865E-01 .            .     *      .            .            .
  1.510E+00 -2.837E-01 .            .     *      .            .            .
  1.520E+00 -2.808E-01 .            .     *      .            .            .
  1.530E+00 -2.780E-01 .            .     *      .            .            .
  1.540E+00 -2.753E-01 .            .     *      .            .            .
  1.550E+00 -2.725E-01 .            .     *      .            .            .
  1.560E+00 -2.698E-01 .            .     *      .            .            .
  1.570E+00 -2.671E-01 .            .     *      .            .            .
  1.580E+00 -2.645E-01 .            .     *      .            .            .
  1.590E+00 -2.618E-01 .            .     *      .            .            .
  1.600E+00 -2.592E-01 .            .     *      .            .            .
  1.610E+00 -2.567E-01 .            .     *      .            .            .
  1.620E+00 -2.541E-01 .            .     *      .            .            .
  1.630E+00 -2.516E-01 .            .     *      .            .            .
  1.640E+00 -2.491E-01 .            .      *     .            .            .
  1.650E+00 -2.466E-01 .            .      *     .            .            .
  1.660E+00 -2.441E-01 .            .      *     .            .            .
  1.670E+00 -2.417E-01 .            .      *     .            .            .
  1.680E+00 -2.393E-01 .            .      *     .            .            .
  1.690E+00 -2.369E-01 .            .      *     .            .            .
  1.700E+00 -2.346E-01 .            .      *     .            .            .
  1.710E+00 -2.322E-01 .            .      *     .            .            .
  1.720E+00 -2.299E-01 .            .      *     .            .            .
  1.730E+00 -2.276E-01 .            .      *     .            .            .
  1.740E+00 -2.254E-01 .            .      *     .            .            .
  1.750E+00 -2.231E-01 .            .      *     .            .            .
  1.760E+00 -2.209E-01 .            .      *     .            .            .
  1.770E+00 -2.187E-01 .            .      *     .            .            .
  1.780E+00 -2.165E-01 .            .      *     .            .            .
  1.790E+00 -2.144E-01 .            .      *     .            .            .
  1.800E+00 -2.123E-01 .            .      *     .            .            .
  1.810E+00 -2.101E-01 .            .       *    .            .            .
  1.820E+00 -2.080E-01 .            .       *    .            .            .
  1.830E+00 -2.060E-01 .            .       *    .            .            .
  1.840E+00 -2.039E-01 .            .       *    .            .            .
  1.850E+00 -2.019E-01 .            .       *    .            .            .
  1.860E+00 -1.999E-01 .            .       *    .            .            .
  1.870E+00 -1.979E-01 .            .       *    .            .            .
  1.880E+00 -1.959E-01 .            .       *    .            .            .
  1.890E+00 -1.940E-01 .            .       *    .            .            .
  1.900E+00 -1.921E-01 .            .       *    .            .            .
  1.910E+00 -1.901E-01 .            .       *    .            .            .
  1.920E+00 -1.882E-01 .            .       *    .            .            .
  1.930E+00 -1.864E-01 .            .       *    .            .            .
  1.940E+00 -1.845E-01 .            .       *    .            .            .
  1.950E+00 -1.827E-01 .            .       *    .            .            .
  1.960E+00 -1.809E-01 .            .       *    .            .            .
  1.970E+00 -1.791E-01 .            .       *    .            .            .
  1.980E+00 -1.773E-01 .            .       *    .            .            .
  1.990E+00 -1.755E-01 .            .       *    .            .            .
  2.000E+00 -1.738E-01 .            .       *    .            .            .
  2.010E+00 -1.720E-01 .            .        *   .            .            .
  2.020E+00 -1.703E-01 .            .        *   .            .            .
  2.030E+00 -1.686E-01 .            .        *   .            .            .
  2.040E+00 -1.670E-01 .            .        *   .            .            .
  2.050E+00 -1.653E-01 .            .        *   .            .            .
  2.060E+00 -1.637E-01 .            .        *   .            .            .
  2.070E+00 -1.620E-01 .            .        *   .            .            .
  2.080E+00 -1.604E-01 .            .        *   .            .            .
  2.090E+00 -1.588E-01 .            .        *   .            .            .
  2.100E+00 -1.572E-01 .            .        *   .            .            .
  2.110E+00 -1.557E-01 .            .        *   .            .            .
  2.120E+00 -1.541E-01 .            .        *   .            .            .
  2.130E+00 -1.526E-01 .            .        *   .            .            .
  2.140E+00 -1.511E-01 .            .        *   .            .            .
  2.150E+00 -1.496E-01 .            .        *   .            .            .
  2.160E+00 -1.481E-01 .            .        *   .            .            .
  2.170E+00 -1.466E-01 .            .        *   .            .            .
  2.180E+00 -1.451E-01 .            .        *   .            .            .
  2.190E+00 -1.437E-01 .            .        *   .            .            .
  2.200E+00 -1.423E-01 .            .        *   .            .            .
  2.210E+00 -1.409E-01 .            .        *   .            .            .
  2.220E+00 -1.395E-01 .            .        *   .            .            .
  2.230E+00 -1.381E-01 .            .        *   .            .            .
  2.240E+00 -1.367E-01 .            .        *   .            .            .
  2.250E+00 -1.353E-01 .            .        *   .            .            .
  2.260E+00 -1.340E-01 .            .         *  .            .            .
  2.270E+00 -1.327E-01 .            .         *  .            .            .
  2.280E+00 -1.313E-01 .            .         *  .            .            .
  2.290E+00 -1.300E-01 .            .         *  .            .            .
  2.300E+00 -1.287E-01 .            .         *  .            .            .
  2.310E+00 -1.275E-01 .            .         *  .            .            .
  2.320E+00 -1.262E-01 .            .         *  .            .            .
  2.330E+00 -1.249E-01 .            .         *  .            .            .
  2.340E+00 -1.237E-01 .            .         *  .            .            .
  2.350E+00 -1.225E-01 .            .         *  .            .            .
  2.360E+00 -1.212E-01 .            .         *  .            .            .
  2.370E+00 -1.200E-01 .            .         *  .            .            .
  2.380E+00 -1.188E-01 .            .         *  .            .            .
  2.390E+00 -1.177E-01 .            .         *  .            .            .
  2.400E+00 -1.165E-01 .            .         *  .            .            .
  2.410E+00 -1.153E-01 .            .         *  .            .            .
  2.420E+00 -1.142E-01 .            .         *  .            .            .
  2.430E+00 -1.130E-01 .            .         *  .            .            .
  2.440E+00 -1.119E-01 .            .         *  .            .            .
  2.450E+00 -1.108E-01 .            .         *  .            .            .
  2.460E+00 -1.097E-01 .            .         *  .            .            .
  2.470E+00 -1.086E-01 .            .         *  .            .            .
  2.480E+00 -1.075E-01 .            .         *  .            .            .
  2.490E+00 -1.065E-01 .            .         *  .            .            .
  2.500E+00 -1.054E-01 .            .         *  .            .            .
  2.510E+00 -1.044E-01 .            .         *  .            .            .
  2.520E+00 -1.033E-01 .            .         *  .            .            .
  2.530E+00 -1.023E-01 .            .         *  .            .            .
  2.540E+00 -1.013E-01 .            .         *  .            .            .
  2.550E+00 -1.003E-01 .            .         *  .            .            .
  2.560E+00 -9.926E-02 .            .         *  .            .            .
  2.570E+00 -9.827E-02 .            .         *  .            .            .
  2.580E+00 -9.730E-02 .            .         *  .            .            .
  2.590E+00 -9.633E-02 .            .         *  .            .            .
  2.600E+00 -9.537E-02 .            .          * .            .            .
  2.610E+00 -9.442E-02 .            .          * .            .            .
  2.620E+00 -9.348E-02 .            .          * .            .            .
  2.630E+00 -9.255E-02 .            .          * .            .            .
  2.640E+00 -9.163E-02 .            .          * .            .            .
  2.650E+00 -9.072E-02 .            .          * .            .            .
  2.660E+00 -8.982E-02 .            .          * .            .            .
  2.670E+00 -8.892E-02 .            .          * .            .            .
  2.680E+00 -8.804E-02 .            .          * .            .            .
  2.690E+00 -8.716E-02 .            .          * .            .            .
  2.700E+00 -8.629E-02 .            .          * .            .            .
  2.710E+00 -8.544E-02 .            .          * .            .            .
  2.720E+00 -8.459E-02 .            .          * .            .            .
  2.730E+00 -8.374E-02 .            .          * .            .            .
  2.740E+00 -8.291E-02 .            .          * .            .            .
  2.750E+00 -8.209E-02 .            .          * .            .            .
  2.760E+00 -8.127E-02 .            .          * .            .            .
  2.770E+00 -8.046E-02 .            .          * .            .            .
  2.780E+00 -7.966E-02 .            .          * .            .            .
  2.790E+00 -7.887E-02 .            .          * .            .            .
  2.800E+00 -7.808E-02 .            .          * .            .            .
  2.810E+00 -7.731E-02 .            .          * .            .            .
  2.820E+00 -7.654E-02 .            .          * .            .            .
  2.830E+00 -7.577E-02 .            .          * .            .            .
  2.840E+00 -7.502E-02 .            .          * .            .            .
  2.850E+00 -7.427E-02 .            .          * .            .            .
  2.860E+00 -7.354E-02 .            .          * .            .            .
  2.870E+00 -7.280E-02 .            .          * .            .            .
  2.880E+00 -7.208E-02 .            .          * .            .            .
  2.890E+00 -7.136E-02 .            .          * .            .            .
  2.900E+00 -7.065E-02 .            .          * .            .            .
  2.910E+00 -6.995E-02 .            .          * .            .            .
  2.920E+00 -6.925E-02 .            .          * .            .            .
  2.930E+00 -6.856E-02 .            .          * .            .            .
  2.940E+00 -6.788E-02 .            .          * .            .            .
  2.950E+00 -6.721E-02 .            .          * .            .            .
  2.960E+00 -6.654E-02 .            .          * .            .            .
  2.970E+00 -6.588E-02 .            .          * .            .            .
  2.980E+00 -6.522E-02 .            .          * .            .            .
  2.990E+00 -6.457E-02 .            .          * .            .            .
  3.000E+00 -6.393E-02 .            .          * .            .            .
  3.010E+00 -6.329E-02 .            .          * .            .            .
  3.020E+00 -6.266E-02 .            .          * .            .            .
  3.030E+00 -6.204E-02 .            .          * .            .            .
  3.040E+00 -6.142E-02 .            .          * .            .            .
  3.050E+00 -6.081E-02 .            .          * .            .            .
  3.060E+00 -6.021E-02 .            .          * .            .            .
  3.070E+00 -5.961E-02 .            .          * .            .            .
  3.080E+00 -5.901E-02 .            .          * .            .            .
  3.090E+00 -5.843E-02 .            .          * .            .            .
  3.100E+00 -5.784E-02 .            .          * .            .            .
  3.110E+00 -5.727E-02 .            .           *.            .            .
  3.120E+00 -5.670E-02 .            .           *.            .            .
  3.130E+00 -5.614E-02 .            .           *.            .            .
  3.140E+00 -5.558E-02 .            .           *.            .            .
  3.150E+00 -5.502E-02 .            .           *.            .            .
  3.160E+00 -5.448E-02 .            .           *.            .            .
  3.170E+00 -5.393E-02 .            .           *.            .            .
  3.180E+00 -5.340E-02 .            .           *.            .            .
  3.190E+00 -5.287E-02 .            .           *.            .            .
  3.200E+00 -5.234E-02 .            .           *.            .            .
  3.210E+00 -5.182E-02 .            .           *.            .            .
  3.220E+00 -5.130E-02 .            .           *.            .            .
  3.230E+00 -5.079E-02 .            .           *.            .            .
  3.240E+00 -5.029E-02 .            .           *.            .            .
  3.250E+00 -4.979E-02 .            .           *.            .            .
  3.260E+00 -4.929E-02 .            .           *.            .            .
  3.270E+00 -4.880E-02 .            .           *.            .            .
  3.280E+00 -4.832E-02 .            .           *.            .            .
  3.290E+00 -4.784E-02 .            .           *.            .            .
  3.300E+00 -4.736E-02 .            .           *.            .            .
  3.310E+00 -4.689E-02 .            .           *.            .            .
  3.320E+00 -4.642E-02 .            .           *.            .            .
  3.330E+00 -4.596E-02 .            .           *.            .            .
  3.340E+00 -4.550E-02 .            .           *.            .            .
  3.350E+00 -4.505E-02 .            .           *.            .            .
  3.360E+00 -4.460E-02 .            .           *.            .            .
  3.370E+00 -4.416E-02 .            .           *.            .            .
  3.380E+00 -4.372E-02 .            .           *.            .            .
  3.390E+00 -4.328E-02 .            .           *.            .            .
  3.400E+00 -4.285E-02 .            .           *.            .            .
  3.410E+00 -4.243E-02 .            .           *.            .            .
  3.420E+00 -4.200E-02 .            .           *.            .            .
  3.430E+00 -4.159E-02 .            .           *.            .            .
  3.440E+00 -4.117E-02 .            .           *.            .            .
  3.450E+00 -4.076E-02 .            .           *.            .            .
  3.460E+00 -4.036E-02 .            .           *.            .            .
  3.470E+00 -3.996E-02 .            .           *.            .            .
  3.480E+00 -3.956E-02 .            .           *.            .            .
  3.490E+00 -3.916E-02 .            .           *.            .            .
  3.500E+00 -3.877E-02 .            .           *.            .            .
  3.510E+00 -3.839E-02 .            .           *.            .            .
  3.520E+00 -3.801E-02 .            .           *.            .            .
  3.530E+00 -3.763E-02 .            .           *.            .            .
  3.540E+00 -3.725E-02 .            .           *.            .            .
  3.550E+00 -3.688E-02 .            .           *.            .            .
  3.560E+00 -3.652E-02 .            .           *.            .            .
  3.570E+00 -3.615E-02 .            .           *.            .            .
  3.580E+00 -3.579E-02 .            .           *.            .            .
  3.590E+00 -3.544E-02 .            .           *.            .            .
  3.600E+00 -3.508E-02 .            .           *.            .            .
  3.610E+00 -3.474E-02 .            .           *.            .            .
  3.620E+00 -3.439E-02 .            .           *.            .            .
  3.630E+00 -3.405E-02 .            .           *.            .            .
  3.640E+00 -3.371E-02 .            .           *.            .            .
  3.650E+00 -3.337E-02 .            .           *.            .            .
  3.660E+00 -3.304E-02 .            .           *.            .            .
  3.670E+00 -3.271E-02 .            .           *.            .            .
  3.680E+00 -3.239E-02 .            .           *.            .            .
  3.690E+00 -3.207E-02 .            .           *.            .            .
  3.700E+00 -3.175E-02 .            .           *.            .            .
  3.710E+00 -3.143E-02 .            .           *.            .            .
  3.720E+00 -3.112E-02 .            .           *.            .            .
  3.730E+00 -3.081E-02 .            .           *.            .            .
  3.740E+00 -3.050E-02 .            .           *.            .            .
  3.750E+00 -3.020E-02 .            .           *.            .            .
  3.760E+00 -2.990E-02 .            .           *.            .            .
  3.770E+00 -2.960E-02 .            .           *.            .            .
  3.780E+00 -2.931E-02 .            .           *.            .            .
  3.790E+00 -2.901E-02 .            .           *.            .            .
  3.800E+00 -2.872E-02 .            .           *.            .            .
  3.810E+00 -2.844E-02 .            .           *.            .            .
  3.820E+00 -2.816E-02 .            .           *.            .            .
  3.830E+00 -2.788E-02 .            .           *.            .            .
  3.840E+00 -2.760E-02 .            .           *.            .            .
  3.850E+00 -2.732E-02 .            .           *.            .            .
  3.860E+00 -2.705E-02 .            .           *.            .            .
  3.870E+00 -2.678E-02 .            .           *.            .            .
  3.880E+00 -2.652E-02 .            .           *.            .            .
  3.890E+00 -2.625E-02 .            .           *.            .            .
  3.900E+00 -2.599E-02 .            .           *.            .            .
  3.910E+00 -2.573E-02 .            .           *.            .            .
  3.920E+00 -2.548E-02 .            .           *.            .            .
  3.930E+00 -2.522E-02 .            .           *.            .            .
  3.940E+00 -2.497E-02 .            .           *.            .            .
  3.950E+00 -2.472E-02 .            .           *.            .            .
  3.960E+00 -2.448E-02 .            .           *.            .            .
  3.970E+00 -2.423E-02 .            .           *.            .            .
  3.980E+00 -2.399E-02 .            .           *.            .            .
  3.990E+00 -2.375E-02 .            .           *.            .            .
  4.000E+00 -2.352E-02 .            .           *.            .            .
  4.010E+00 -2.328E-02 .            .           *.            .            .
  4.020E+00 -2.305E-02 .            .           *.            .            .
  4.030E+00 -2.282E-02 .            .           *.            .            .
  4.040E+00 -2.260E-02 .            .           *.            .            .
  4.050E+00 -2.237E-02 .            .           *.            .            .
  4.060E+00 -2.215E-02 .            .           *.            .            .
  4.070E+00 -2.193E-02 .            .           *.            .            .
  4.080E+00 -2.171E-02 .            .           *.            .            .
  4.090E+00 -2.149E-02 .            .           *.            .            .
  4.100E+00 -2.128E-02 .            .           *.            .            .
  4.110E+00 -2.107E-02 .            .           *.            .            .
  4.120E+00 -2.086E-02 .            .           *.            .            .
  4.130E+00 -2.065E-02 .            .           *.            .            .
  4.140E+00 -2.045E-02 .            .           *.            .            .
  4.150E+00 -2.024E-02 .            .           *.            .            .
  4.160E+00 -2.004E-02 .            .           *.            .            .
  4.170E+00 -1.984E-02 .            .           *.            .            .
  4.180E+00 -1.964E-02 .            .           *.            .            .
  4.190E+00 -1.945E-02 .            .           *.            .            .
  4.200E+00 -1.925E-02 .            .            *            .            .
  4.210E+00 -1.906E-02 .            .            *            .            .
  4.220E+00 -1.887E-02 .            .            *            .            .
  4.230E+00 -1.869E-02 .            .            *            .            .
  4.240E+00 -1.850E-02 .            .            *            .            .
  4.250E+00 -1.832E-02 .            .            *            .            .
  4.260E+00 -1.813E-02 .            .            *            .            .
  4.270E+00 -1.795E-02 .            .            *            .            .
  4.280E+00 -1.777E-02 .            .            *            .            .
  4.290E+00 -1.760E-02 .            .            *            .            .
  4.300E+00 -1.742E-02 .            .            *            .            .
  4.310E+00 -1.725E-02 .            .            *            .            .
  4.320E+00 -1.708E-02 .            .            *            .            .
  4.330E+00 -1.691E-02 .            .            *            .            .
  4.340E+00 -1.674E-02 .            .            *            .            .
  4.350E+00 -1.657E-02 .            .            *            .            .
  4.360E+00 -1.641E-02 .            .            *            .            .
  4.370E+00 -1.624E-02 .            .            *            .            .
  4.380E+00 -1.608E-02 .            .            *            .            .
  4.390E+00 -1.592E-02 .            .            *            .            .
  4.400E+00 -1.576E-02 .            .            *            .            .
  4.410E+00 -1.561E-02 .            .            *            .            .
  4.420E+00 -1.545E-02 .            .            *            .            .
  4.430E+00 -1.530E-02 .            .            *            .            .
  4.440E+00 -1.515E-02 .            .            *            .            .
  4.450E+00 -1.500E-02 .            .            *            .            .
  4.460E+00 -1.485E-02 .            .            *            .            .
  4.470E+00 -1.470E-02 .            .            *            .            .
  4.480E+00 -1.455E-02 .            .            *            .            .
  4.490E+00 -1.441E-02 .            .            *            .            .
  4.500E+00 -1.426E-02 .            .            *            .            .
  4.510E+00 -1.412E-02 .            .            *            .            .
  4.520E+00 -1.398E-02 .            .            *            .            .
  4.530E+00 -1.384E-02 .            .            *            .            .
  4.540E+00 -1.371E-02 .            .            *            .            .
  4.550E+00 -1.357E-02 .            .            *            .            .
  4.560E+00 -1.343E-02 .            .            *            .            .
  4.570E+00 -1.330E-02 .            .            *            .            .
  4.580E+00 -1.317E-02 .            .            *            .            .
  4.590E+00 -1.304E-02 .            .            *            .            .
  4.600E+00 -1.291E-02 .            .            *            .            .
  4.610E+00 -1.278E-02 .            .            *            .            .
  4.620E+00 -1.265E-02 .            .            *            .            .
  4.630E+00 -1.253E-02 .            .            *            .            .
  4.640E+00 -1.240E-02 .            .            *            .            .
  4.650E+00 -1.228E-02 .            .            *            .            .
  4.660E+00 -1.216E-02 .            .            *            .            .
  4.670E+00 -1.203E-02 .            .            *            .            .
  4.680E+00 -1.191E-02 .            .            *            .            .
  4.690E+00 -1.180E-02 .            .            *            .            .
  4.700E+00 -1.168E-02 .            .            *            .            .
  4.710E+00 -1.156E-02 .            .            *            .            .
  4.720E+00 -1.145E-02 .            .            *            .            .
  4.730E+00 -1.133E-02 .            .            *            .            .
  4.740E+00 -1.122E-02 .            .            *            .            .
  4.750E+00 -1.111E-02 .            .            *            .            .
  4.760E+00 -1.100E-02 .            .            *            .            .
  4.770E+00 -1.089E-02 .            .            *            .            .
  4.780E+00 -1.078E-02 .            .            *            .            .
  4.790E+00 -1.067E-02 .            .            *            .            .
  4.800E+00 -1.057E-02 .            .            *            .            .
  4.810E+00 -1.046E-02 .            .            *            .            .
  4.820E+00 -1.036E-02 .            .            *            .            .
  4.830E+00 -1.026E-02 .            .            *            .            .
  4.840E+00 -1.015E-02 .            .            *            .            .
  4.850E+00 -1.005E-02 .            .            *            .            .
  4.860E+00 -9.952E-03 .            .            *            .            .
  4.870E+00 -9.853E-03 .            .            *            .            .
  4.880E+00 -9.755E-03 .            .            *            .            .
  4.890E+00 -9.658E-03 .            .            *            .            .
  4.900E+00 -9.562E-03 .            .            *            .            .
  4.910E+00 -9.467E-03 .            .            *            .            .
  4.920E+00 -9.372E-03 .            .            *            .            .
  4.930E+00 -9.279E-03 .            .            *            .            .
  4.940E+00 -9.187E-03 .            .            *            .            .
  4.950E+00 -9.095E-03 .            .            *            .            .
  4.960E+00 -9.005E-03 .            .            *            .            .
  4.970E+00 -8.915E-03 .            .            *            .            .
  4.980E+00 -8.827E-03 .            .            *            .            .
  4.990E+00 -8.739E-03 .            .            *            .            .
  5.000E+00 -8.652E-03 .            .            *            .            .
  5.010E+00 -8.566E-03 .            .            *            .            .
  5.020E+00 -8.480E-03 .            .            *            .            .
  5.030E+00 -8.396E-03 .            .            *            .            .
  5.040E+00 -8.313E-03 .            .            *            .            .
  5.050E+00 -8.230E-03 .            .            *            .            .
  5.060E+00 -8.148E-03 .            .            *            .            .
  5.070E+00 -8.067E-03 .            .            *            .            .
  5.080E+00 -7.987E-03 .            .            *            .            .
  5.090E+00 -7.907E-03 .            .            *            .            .
  5.100E+00 -7.828E-03 .            .            *            .            .
  5.110E+00 -7.751E-03 .            .            *            .            .
  5.120E+00 -7.673E-03 .            .            *            .            .
  5.130E+00 -7.597E-03 .            .            *            .            .
  5.140E+00 -7.521E-03 .            .            *            .            .
  5.150E+00 -7.447E-03 .            .            *            .            .
  5.160E+00 -7.373E-03 .            .            *            .            .
  5.170E+00 -7.299E-03 .            .            *            .            .
  5.180E+00 -7.227E-03 .            .            *            .            .
  5.190E+00 -7.155E-03 .            .            *            .            .
  5.200E+00 -7.083E-03 .            .            *            .            .
  5.210E+00 -7.013E-03 .            .            *            .            .
  5.220E+00 -6.943E-03 .            .            *            .            .
  5.230E+00 -6.874E-03 .            .            *            .            .
  5.240E+00 -6.806E-03 .            .            *            .            .
  5.250E+00 -6.738E-03 .            .            *            .            .
  5.260E+00 -6.671E-03 .            .            *            .            .
  5.270E+00 -6.605E-03 .            .            *            .            .
  5.280E+00 -6.539E-03 .            .            *            .            .
  5.290E+00 -6.474E-03 .            .            *            .            .
  5.300E+00 -6.409E-03 .            .            *            .            .
  5.310E+00 -6.346E-03 .            .            *            .            .
  5.320E+00 -6.282E-03 .            .            *            .            .
  5.330E+00 -6.220E-03 .            .            *            .            .
  5.340E+00 -6.158E-03 .            .            *            .            .
  5.350E+00 -6.097E-03 .            .            *            .            .
  5.360E+00 -6.036E-03 .            .            *            .            .
  5.370E+00 -5.976E-03 .            .            *            .            .
  5.380E+00 -5.917E-03 .            .            *            .            .
  5.390E+00 -5.858E-03 .            .            *            .            .
  5.400E+00 -5.799E-03 .            .            *            .            .
  5.410E+00 -5.742E-03 .            .            *            .            .
  5.420E+00 -5.685E-03 .            .            *            .            .
  5.430E+00 -5.628E-03 .            .            *            .            .
  5.440E+00 -5.572E-03 .            .            *            .            .
  5.450E+00 -5.517E-03 .            .            *            .            .
  5.460E+00 -5.462E-03 .            .            *            .            .
  5.470E+00 -5.407E-03 .            .            *            .            .
  5.480E+00 -5.354E-03 .            .            *            .            .
  5.490E+00 -5.300E-03 .            .            *            .            .
  5.500E+00 -5.248E-03 .            .            *            .            .
  5.510E+00 -5.195E-03 .            .            *            .            .
  5.520E+00 -5.144E-03 .            .            *            .            .
  5.530E+00 -5.092E-03 .            .            *            .            .
  5.540E+00 -5.042E-03 .            .            *            .            .
  5.550E+00 -4.992E-03 .            .            *            .            .
  5.560E+00 -4.942E-03 .            .            *            .            .
  5.570E+00 -4.893E-03 .            .            *            .            .
  5.580E+00 -4.844E-03 .            .            *            .            .
  5.590E+00 -4.796E-03 .            .            *            .            .
  5.600E+00 -4.748E-03 .            .            *            .            .
  5.610E+00 -4.701E-03 .            .            *            .            .
  5.620E+00 -4.654E-03 .            .            *            .            .
  5.630E+00 -4.608E-03 .            .            *            .            .
  5.640E+00 -4.562E-03 .            .            *            .            .
  5.650E+00 -4.517E-03 .            .            *            .            .
  5.660E+00 -4.472E-03 .            .            *            .            .
  5.670E+00 -4.427E-03 .            .            *            .            .
  5.680E+00 -4.383E-03 .            .            *            .            .
  5.690E+00 -4.340E-03 .            .            *            .            .
  5.700E+00 -4.296E-03 .            .            *            .            .
  5.710E+00 -4.254E-03 .            .            *            .            .
  5.720E+00 -4.211E-03 .            .            *            .            .
  5.730E+00 -4.169E-03 .            .            *            .            .
  5.740E+00 -4.128E-03 .            .            *            .            .
  5.750E+00 -4.087E-03 .            .            *            .            .
  5.760E+00 -4.046E-03 .            .            *            .            .
  5.770E+00 -4.006E-03 .            .            *            .            .
  5.780E+00 -3.966E-03 .            .            *            .            .
  5.790E+00 -3.927E-03 .            .            *            .            .
  5.800E+00 -3.887E-03 .            .            *            .            .
  5.810E+00 -3.849E-03 .            .            *            .            .
  5.820E+00 -3.811E-03 .            .            *            .            .
  5.830E+00 -3.773E-03 .            .            *            .            .
  5.840E+00 -3.735E-03 .            .            *            .            .
  5.850E+00 -3.698E-03 .            .            *            .            .
  5.860E+00 -3.661E-03 .            .            *            .            .
  5.870E+00 -3.625E-03 .            .            *            .            .
  5.880E+00 -3.589E-03 .            .            *            .            .
  5.890E+00 -3.553E-03 .            .            *            .            .
  5.900E+00 -3.518E-03 .            .            *            .            .
  5.910E+00 -3.483E-03 .            .            *            .            .
  5.920E+00 -3.448E-03 .            .            *            .            .
  5.930E+00 -3.414E-03 .            .            *            .            .
  5.940E+00 -3.380E-03 .            .            *            .            .
  5.950E+00 -3.346E-03 .            .            *            .            .
  5.960E+00 -3.313E-03 .            .            *            .            .
  5.970E+00 -3.280E-03 .            .            *            .            .
  5.980E+00 -3.247E-03 .            .            *            .            .
  5.990E+00 -3.215E-03 .            .            *            .            .
  6.000E+00 -3.183E-03 .            .            *            .            .
  6.010E+00 -3.151E-03 .            .            *            .            .
  6.020E+00 -3.120E-03 .            .            *            .            .
  6.030E+00 -3.089E-03 .            .            *            .            .
  6.040E+00 -3.058E-03 .            .            *            .            .
  6.050E+00 -3.028E-03 .            .            *            .            .
  6.060E+00 -2.997E-03 .            .            *            .            .
  6.070E+00 -2.968E-03 .            .            *            .            .
  6.080E+00 -2.938E-03 .            .            *            .            .
  6.090E+00 -2.909E-03 .            .            *            .            .
  6.100E+00 -2.880E-03 .            .            *            .            .
  6.110E+00 -2.851E-03 .            .            *            .            .
  6.120E+00 -2.823E-03 .            .            *            .            .
  6.130E+00 -2.795E-03 .            .            *            .            .
  6.140E+00 -2.767E-03 .            .            *            .            .
  6.150E+00 -2.739E-03 .            .            *            .            .
  6.160E+00 -2.712E-03 .            .            *            .            .
  6.170E+00 -2.685E-03 .            .            *            .            .
  6.180E+00 -2.659E-03 .            .            *            .            .
  6.190E+00 -2.632E-03 .            .            *            .            .
  6.200E+00 -2.606E-03 .            .            *            .            .
  6.210E+00 -2.580E-03 .            .            *            .            .
  6.220E+00 -2.554E-03 .            .            *            .            .
  6.230E+00 -2.529E-03 .            .            *            .            .
  6.240E+00 -2.504E-03 .            .            *            .            .
  6.250E+00 -2.479E-03 .            .            *            .            .
  6.260E+00 -2.454E-03 .            .            *            .            .
  6.270E+00 -2.430E-03 .            .            *            .            .
  6.280E+00 -2.406E-03 .            .            *            .            .
  6.290E+00 -2.382E-03 .            .            *            .            .
  6.300E+00 -2.358E-03 .            .            *            .            .
  6.310E+00 -2.334E-03 .            .            *            .            .
  6.320E+00 -2.311E-03 .            .            *            .            .
  6.330E+00 -2.288E-03 .            .            *            .            .
  6.340E+00 -2.265E-03 .            .            *            .            .
  6.350E+00 -2.243E-03 .            .            *            .            .
  6.360E+00 -2.221E-03 .            .            *            .            .
  6.370E+00 -2.198E-03 .            .            *            .            .
  6.380E+00 -2.177E-03 .            .            *            .            .
  6.390E+00 -2.155E-03 .            .            *            .            .
  6.400E+00 -2.134E-03 .            .            *            .            .
  6.410E+00 -2.112E-03 .            .            *            .            .
  6.420E+00 -2.091E-03 .            .            *            .            .
  6.430E+00 -2.070E-03 .            .            *            .            .
  6.440E+00 -2.050E-03 .            .            *            .            .
  6.450E+00 -2.029E-03 .            .            *            .            .
  6.460E+00 -2.009E-03 .            .            *            .            .
  6.470E+00 -1.989E-03 .            .            *            .            .
  6.480E+00 -1.969E-03 .            .            *            .            .
  6.490E+00 -1.950E-03 .            .            *            .            .
  6.500E+00 -1.930E-03 .            .            *            .            .
  6.510E+00 -1.911E-03 .            .            *            .            .
  6.520E+00 -1.892E-03 .            .            *            .            .
  6.530E+00 -1.873E-03 .            .            *            .            .
  6.540E+00 -1.855E-03 .            .            *            .            .
  6.550E+00 -1.836E-03 .            .            *            .            .
  6.560E+00 -1.818E-03 .            .            *            .            .
  6.570E+00 -1.800E-03 .            .            *            .            .
  6.580E+00 -1.782E-03 .            .            *            .            .
  6.590E+00 -1.764E-03 .            .            *            .            .
  6.600E+00 -1.747E-03 .            .            *            .            .
  6.610E+00 -1.729E-03 .            .            *            .            .
  6.620E+00 -1.712E-03 .            .            *            .            .
  6.630E+00 -1.695E-03 .            .            *            .            .
  6.640E+00 -1.678E-03 .            .            *            .            .
  6.650E+00 -1.662E-03 .            .            *            .            .
  6.660E+00 -1.645E-03 .            .            *            .            .
  6.670E+00 -1.629E-03 .            .            *            .            .
  6.680E+00 -1.612E-03 .            .            *            .            .
  6.690E+00 -1.596E-03 .            .            *            .            .
  6.700E+00 -1.581E-03 .            .            *            .            .
  6.710E+00 -1.565E-03 .            .            *            .            .
  6.720E+00 -1.549E-03 .            .            *            .            .
  6.730E+00 -1.534E-03 .            .            *            .            .
  6.740E+00 -1.519E-03 .            .            *            .            .
  6.750E+00 -1.503E-03 .            .            *            .            .
  6.760E+00 -1.488E-03 .            .            *            .            .
  6.770E+00 -1.474E-03 .            .            *            .            .
  6.780E+00 -1.459E-03 .            .            *            .            .
  6.790E+00 -1.445E-03 .            .            *            .            .
  6.800E+00 -1.430E-03 .            .            *            .            .
  6.810E+00 -1.416E-03 .            .            *            .            .
  6.820E+00 -1.402E-03 .            .            *            .            .
  6.830E+00 -1.388E-03 .            .            *            .            .
  6.840E+00 -1.374E-03 .            .            *            .            .
  6.850E+00 -1.360E-03 .            .            *            .            .
  6.860E+00 -1.347E-03 .            .            *            .            .
  6.870E+00 -1.333E-03 .            .            *            .            .
  6.880E+00 -1.320E-03 .            .            *            .            .
  6.890E+00 -1.307E-03 .            .            *            .            .
  6.900E+00 -1.294E-03 .            .            *            .            .
  6.910E+00 -1.281E-03 .            .            *            .            .
  6.920E+00 -1.268E-03 .            .            *            .            .
  6.930E+00 -1.256E-03 .            .            *            .            .
  6.940E+00 -1.243E-03 .            .            *            .            .
  6.950E+00 -1.231E-03 .            .            *            .            .
  6.960E+00 -1.219E-03 .            .            *            .            .
  6.970E+00 -1.207E-03 .            .            *            .            .
  6.980E+00 -1.195E-03 .            .            *            .            .
  6.990E+00 -1.183E-03 .            .            *            .            .
  7.000E+00 -1.171E-03 .            .            *            .            .
  7.010E+00 -1.159E-03 .            .            *            .            .
  7.020E+00 -1.148E-03 .            .            *            .            .
  7.030E+00 -1.136E-03 .            .            *            .            .
  7.040E+00 -1.125E-03 .            .            *            .            .
  7.050E+00 -1.114E-03 .            .            *            .            .
  7.060E+00 -1.103E-03 .            .            *            .            .
  7.070E+00 -1.092E-03 .            .            *            .            .
  7.080E+00 -1.081E-03 .            .            *            .            .
  7.090E+00 -1.070E-03 .            .            *            .            .
  7.100E+00 -1.059E-03 .            .            *            .            .
  7.110E+00 -1.049E-03 .            .            *            .            .
  7.120E+00 -1.038E-03 .            .            *            .            .
  7.130E+00 -1.028E-03 .            .            *            .            .
  7.140E+00 -1.018E-03 .            .            *            .            .
  7.150E+00 -1.008E-03 .            .            *            .            .
  7.160E+00 -9.978E-04 .            .            *            .            .
  7.170E+00 -9.878E-04 .            .            *            .            .
  7.180E+00 -9.780E-04 .            .            *            .            .
  7.190E+00 -9.683E-04 .            .            *            .            .
  7.200E+00 -9.586E-04 .            .            *            .            .
  7.210E+00 -9.491E-04 .            .            *            .            .
  7.220E+00 -9.397E-04 .            .            *            .            .
  7.230E+00 -9.303E-04 .            .            *            .            .
  7.240E+00 -9.211E-04 .            .            *            .            .
  7.250E+00 -9.119E-04 .            .            *            .            .
  7.260E+00 -9.028E-04 .            .            *            .            .
  7.270E+00 -8.938E-04 .            .            *            .            .
  7.280E+00 -8.849E-04 .            .            *            .            .
  7.290E+00 -8.761E-04 .            .            *            .            .
  7.300E+00 -8.674E-04 .            .            *            .            .
  7.310E+00 -8.588E-04 .            .            *            .            .
  7.320E+00 -8.502E-04 .            .            *            .            .
  7.330E+00 -8.418E-04 .            .            *            .            .
  7.340E+00 -8.334E-04 .            .            *            .            .
  7.350E+00 -8.251E-04 .            .            *            .            .
  7.360E+00 -8.169E-04 .            .            *            .            .
  7.370E+00 -8.088E-04 .            .            *            .            .
  7.380E+00 -8.007E-04 .            .            *            .            .
  7.390E+00 -7.928E-04 .            .            *            .            .
  7.400E+00 -7.849E-04 .            .            *            .            .
  7.410E+00 -7.771E-04 .            .            *            .            .
  7.420E+00 -7.693E-04 .            .            *            .            .
  7.430E+00 -7.617E-04 .            .            *            .            .
  7.440E+00 -7.541E-04 .            .            *            .            .
  7.450E+00 -7.466E-04 .            .            *            .            .
  7.460E+00 -7.392E-04 .            .            *            .            .
  7.470E+00 -7.318E-04 .            .            *            .            .
  7.480E+00 -7.245E-04 .            .            *            .            .
  7.490E+00 -7.173E-04 .            .            *            .            .
  7.500E+00 -7.102E-04 .            .            *            .            .
  7.510E+00 -7.031E-04 .            .            *            .            .
  7.520E+00 -6.961E-04 .            .            *            .            .
  7.530E+00 -6.892E-04 .            .            *            .            .
  7.540E+00 -6.823E-04 .            .            *            .            .
  7.550E+00 -6.755E-04 .            .            *            .            .
  7.560E+00 -6.688E-04 .            .            *            .            .
  7.570E+00 -6.622E-04 .            .            *            .            .
  7.580E+00 -6.556E-04 .            .            *            .            .
  7.590E+00 -6.491E-04 .            .            *            .            .
  7.600E+00 -6.426E-04 .            .            *            .            .
  7.610E+00 -6.362E-04 .            .            *            .            .
  7.620E+00 -6.299E-04 .            .            *            .            .
  7.630E+00 -6.236E-04 .            .            *            .            .
  7.640E+00 -6.174E-04 .            .            *            .            .
  7.650E+00 -6.113E-04 .            .            *            .            .
  7.660E+00 -6.052E-04 .            .            *            .            .
  7.670E+00 -5.992E-04 .            .            *            .            .
  7.680E+00 -5.932E-04 .            .            *            .            .
  7.690E+00 -5.873E-04 .            .            *            .            .
  7.700E+00 -5.814E-04 .            .            *            .            .
  7.710E+00 -5.757E-04 .            .            *            .            .
  7.720E+00 -5.699E-04 .            .            *            .            .
  7.730E+00 -5.643E-04 .            .            *            .            .
  7.740E+00 -5.586E-04 .            .            *            .            .
  7.750E+00 -5.531E-04 .            .            *            .            .
  7.760E+00 -5.476E-04 .            .            *            .            .
  7.770E+00 -5.421E-04 .            .            *            .            .
  7.780E+00 -5.367E-04 .            .            *            .            .
  7.790E+00 -5.314E-04 .            .            *            .            .
  7.800E+00 -5.261E-04 .            .            *            .            .
  7.810E+00 -5.209E-04 .            .            *            .            .
  7.820E+00 -5.157E-04 .            .            *            .            .
  7.830E+00 -5.106E-04 .            .            *            .            .
  7.840E+00 -5.055E-04 .            .            *            .            .
  7.850E+00 -5.005E-04 .            .            *            .            .
  7.860E+00 -4.955E-04 .            .            *            .            .
  7.870E+00 -4.905E-04 .            .            *            .            .
  7.880E+00 -4.857E-04 .            .            *            .            .
  7.890E+00 -4.808E-04 .            .            *            .            .
  7.900E+00 -4.760E-04 .            .            *            .            .
  7.910E+00 -4.713E-04 .            .            *            .            .
  7.920E+00 -4.666E-04 .            .            *            .            .
  7.930E+00 -4.620E-04 .            .            *            .            .
  7.940E+00 -4.574E-04 .            .            *            .            .
  7.950E+00 -4.528E-04 .            .            *            .            .
  7.960E+00 -4.483E-04 .            .            *            .            .
  7.970E+00 -4.439E-04 .            .            *            .            .
  7.980E+00 -4.394E-04 .            .            *            .            .
  7.990E+00 -4.351E-04 .            .            *            .            .
  8.000E+00 -4.307E-04 .            .            *            .            .
  8.010E+00 -4.265E-04 .            .            *            .            .
  8.020E+00 -4.222E-04 .            .            *            .            .
  8.030E+00 -4.180E-04 .            .            *            .            .
  8.040E+00 -4.139E-04 .            .            *            .            .
  8.050E+00 -4.097E-04 .            .            *            .            .
  8.060E+00 -4.057E-04 .            .            *            .            .
  8.070E+00 -4.016E-04 .            .            *            .            .
  8.080E+00 -3.976E-04 .            .            *            .            .
  8.090E+00 -3.937E-04 .            .            *            .            .
  8.100E+00 -3.898E-04 .            .            *            .            .
  8.110E+00 -3.859E-04 .            .            *            .            .
  8.120E+00 -3.820E-04 .            .            *            .            .
  8.130E+00 -3.782E-04 .            .            *            .            .
  8.140E+00 -3.745E-04 .            .            *            .            .
  8.150E+00 -3.707E-04 .            .            *            .            .
  8.160E+00 -3.671E-04 .            .            *            .            .
  8.170E+00 -3.634E-04 .            .            *            .            .
  8.180E+00 -3.598E-04 .            .            *            .            .
  8.190E+00 -3.562E-04 .            .            *            .            .
  8.200E+00 -3.527E-04 .            .            *            .            .
  8.210E+00 -3.492E-04 .            .            *            .            .
  8.220E+00 -3.457E-04 .            .            *            .            .
  8.230E+00 -3.422E-04 .            .            *            .            .
  8.240E+00 -3.388E-04 .            .            *            .            .
  8.250E+00 -3.355E-04 .            .            *            .            .
  8.260E+00 -3.321E-04 .            .            *            .            .
  8.270E+00 -3.288E-04 .            .            *            .            .
  8.280E+00 -3.256E-04 .            .            *            .            .
  8.290E+00 -3.223E-04 .            .            *            .            .
  8.300E+00 -3.191E-04 .            .            *            .            .
  8.310E+00 -3.159E-04 .            .            *            .            .
  8.320E+00 -3.128E-04 .            .            *            .            .
  8.330E+00 -3.097E-04 .            .            *            .            .
  8.340E+00 -3.066E-04 .            .            *            .            .
  8.350E+00 -3.035E-04 .            .            *            .            .
  8.360E+00 -3.005E-04 .            .            *            .            .
  8.370E+00 -2.975E-04 .            .            *            .            .
  8.380E+00 -2.946E-04 .            .            *            .            .
  8.390E+00 -2.916E-04 .            .            *            .            .
  8.400E+00 -2.887E-04 .            .            *            .            .
  8.410E+00 -2.859E-04 .            .            *            .            .
  8.420E+00 -2.830E-04 .            .            *            .            .
  8.430E+00 -2.802E-04 .            .            *            .            .
  8.440E+00 -2.774E-04 .            .            *            .            .
  8.450E+00 -2.747E-04 .            .            *            .            .
  8.460E+00 -2.719E-04 .            .            *            .            .
  8.470E+00 -2.692E-04 .            .            *            .            .
  8.480E+00 -2.665E-04 .            .            *            .            .
  8.490E+00 -2.639E-04 .            .            *            .            .
  8.500E+00 -2.613E-04 .            .            *            .            .
  8.510E+00 -2.587E-04 .            .            *            .            .
  8.520E+00 -2.561E-04 .            .            *            .            .
  8.530E+00 -2.535E-04 .            .            *            .            .
  8.540E+00 -2.510E-04 .            .            *            .            .
  8.550E+00 -2.485E-04 .            .            *            .            .
  8.560E+00 -2.460E-04 .            .            *            .            .
  8.570E+00 -2.436E-04 .            .            *            .            .
  8.580E+00 -2.412E-04 .            .            *            .            .
  8.590E+00 -2.388E-04 .            .            *            .            .
  8.600E+00 -2.364E-04 .            .            *            .            .
  8.610E+00 -2.340E-04 .            .            *            .            .
  8.620E+00 -2.317E-04 .            .            *            .            .
  8.630E+00 -2.294E-04 .            .            *            .            .
  8.640E+00 -2.271E-04 .            .            *            .            .
  8.650E+00 -2.249E-04 .            .            *            .            .
  8.660E+00 -2.226E-04 .            .            *            .            .
  8.670E+00 -2.204E-04 .            .            *            .            .
  8.680E+00 -2.182E-04 .            .            *            .            .
  8.690E+00 -2.161E-04 .            .            *            .            .
  8.700E+00 -2.139E-04 .            .            *            .            .
  8.710E+00 -2.118E-04 .            .            *            .            .
  8.720E+00 -2.097E-04 .            .            *            .            .
  8.730E+00 -2.076E-04 .            .            *            .            .
  8.740E+00 -2.055E-04 .            .            *            .            .
  8.750E+00 -2.035E-04 .            .            *            .            .
  8.760E+00 -2.014E-04 .            .            *            .            .
  8.770E+00 -1.994E-04 .            .            *            .            .
  8.780E+00 -1.975E-04 .            .            *            .            .
  8.790E+00 -1.955E-04 .            .            *            .            .
  8.800E+00 -1.935E-04 .            .            *            .            .
  8.810E+00 -1.916E-04 .            .            *            .            .
  8.820E+00 -1.897E-04 .            .            *            .            .
  8.830E+00 -1.878E-04 .            .            *            .            .
  8.840E+00 -1.860E-04 .            .            *            .            .
  8.850E+00 -1.841E-04 .            .            *            .            .
  8.860E+00 -1.823E-04 .            .            *            .            .
  8.870E+00 -1.805E-04 .            .            *            .            .
  8.880E+00 -1.787E-04 .            .            *            .            .
  8.890E+00 -1.769E-04 .            .            *            .            .
  8.900E+00 -1.751E-04 .            .            *            .            .
  8.910E+00 -1.734E-04 .            .            *            .            .
  8.920E+00 -1.717E-04 .            .            *            .            .
  8.930E+00 -1.700E-04 .            .            *            .            .
  8.940E+00 -1.683E-04 .            .            *            .            .
  8.950E+00 -1.666E-04 .            .            *            .            .
  8.960E+00 -1.649E-04 .            .            *            .            .
  8.970E+00 -1.633E-04 .            .            *            .            .
  8.980E+00 -1.617E-04 .            .            *            .            .
  8.990E+00 -1.601E-04 .            .            *            .            .
  9.000E+00 -1.585E-04 .            .            *            .            .
  9.010E+00 -1.569E-04 .            .            *            .            .
  9.020E+00 -1.553E-04 .            .            *            .            .
  9.030E+00 -1.538E-04 .            .            *            .            .
  9.040E+00 -1.522E-04 .            .            *            .            .
  9.050E+00 -1.507E-04 .            .            *            .            .
  9.060E+00 -1.492E-04 .            .            *            .            .
  9.070E+00 -1.478E-04 .            .            *            .            .
  9.080E+00 -1.463E-04 .            .            *            .            .
  9.090E+00 -1.448E-04 .            .            *            .            .
  9.100E+00 -1.434E-04 .            .            *            .            .
  9.110E+00 -1.420E-04 .            .            *            .            .
  9.120E+00 -1.405E-04 .            .            *            .            .
  9.130E+00 -1.391E-04 .            .            *            .            .
  9.140E+00 -1.378E-04 .            .            *            .            .
  9.150E+00 -1.364E-04 .            .            *            .            .
  9.160E+00 -1.350E-04 .            .            *            .            .
  9.170E+00 -1.337E-04 .            .            *            .            .
  9.180E+00 -1.324E-04 .            .            *            .            .
  9.190E+00 -1.310E-04 .            .            *            .            .
  9.200E+00 -1.297E-04 .            .            *            .            .
  9.210E+00 -1.284E-04 .            .            *            .            .
  9.220E+00 -1.272E-04 .            .            *            .            .
  9.230E+00 -1.259E-04 .            .            *            .            .
  9.240E+00 -1.247E-04 .            .            *            .            .
  9.250E+00 -1.234E-04 .            .            *            .            .
  9.260E+00 -1.222E-04 .            .            *            .            .
  9.270E+00 -1.210E-04 .            .            *            .            .
  9.280E+00 -1.198E-04 .            .            *            .            .
  9.290E+00 -1.186E-04 .            .            *            .            .
  9.300E+00 -1.174E-04 .            .            *            .            .
  9.310E+00 -1.162E-04 .            .            *            .            .
  9.320E+00 -1.151E-04 .            .            *            .            .
  9.330E+00 -1.139E-04 .            .            *            .            .
  9.340E+00 -1.128E-04 .            .            *            .            .
  9.350E+00 -1.117E-04 .            .            *            .            .
  9.360E+00 -1.106E-04 .            .            *            .            .
  9.370E+00 -1.095E-04 .            .            *            .            .
  9.380E+00 -1.084E-04 .            .            *            .            .
  9.390E+00 -1.073E-04 .            .            *            .            .
  9.400E+00 -1.062E-04 .            .            *            .            .
  9.410E+00 -1.052E-04 .            .            *            .            .
  9.420E+00 -1.041E-04 .            .            *            .            .
  9.430E+00 -1.031E-04 .            .            *            .            .
  9.440E+00 -1.021E-04 .            .            *            .            .
  9.450E+00 -1.010E-04 .            .            *            .            .
  9.460E+00 -1.000E-04 .            .            *            .            .
  9.470E+00 -9.904E-05 .            .            *            .            .
  9.480E+00 -9.805E-05 .            .            *            .            .
  9.490E+00 -9.708E-05 .            .            *            .            .
  9.500E+00 -9.611E-05 .            .            *            .            .
  9.510E+00 -9.516E-05 .            .            *            .            .
  9.520E+00 -9.421E-05 .            .            *            .            .
  9.530E+00 -9.327E-05 .            .            *            .            .
  9.540E+00 -9.234E-05 .            .            *            .            .
  9.550E+00 -9.143E-05 .            .            *            .            .
  9.560E+00 -9.052E-05 .            .            *            .            .
  9.570E+00 -8.961E-05 .            .            *            .            .
  9.580E+00 -8.872E-05 .            .            *            .            .
  9.590E+00 -8.784E-05 .            .            *            .            .
  9.600E+00 -8.697E-05 .            .            *            .            .
  9.610E+00 -8.610E-05 .            .            *            .            .
  9.620E+00 -8.524E-05 .            .            *            .            .
  9.630E+00 -8.440E-05 .            .            *            .            .
  9.640E+00 -8.356E-05 .            .            *            .            .
  9.650E+00 -8.272E-05 .            .            *            .            .
  9.660E+00 -8.190E-05 .            .            *            .            .
  9.670E+00 -8.109E-05 .            .            *            .            .
  9.680E+00 -8.028E-05 .            .            *            .            .
  9.690E+00 -7.948E-05 .            .            *            .            .
  9.700E+00 -7.869E-05 .            .            *            .            .
  9.710E+00 -7.791E-05 .            .            *            .            .
  9.720E+00 -7.713E-05 .            .            *            .            .
  9.730E+00 -7.636E-05 .            .            *            .            .
  9.740E+00 -7.560E-05 .            .            *            .            .
  9.750E+00 -7.485E-05 .            .            *            .            .
  9.760E+00 -7.411E-05 .            .            *            .            .
  9.770E+00 -7.337E-05 .            .            *            .            .
  9.780E+00 -7.264E-05 .            .            *            .            .
  9.790E+00 -7.192E-05 .            .            *            .            .
  9.800E+00 -7.120E-05 .            .            *            .            .
  9.810E+00 -7.049E-05 .            .            *            .            .
  9.820E+00 -6.979E-05 .            .            *            .            .
  9.830E+00 -6.910E-05 .            .            *            .            .
  9.840E+00 -6.841E-05 .            .            *            .            .
  9.850E+00 -6.773E-05 .            .            *            .            .
  9.860E+00 -6.706E-05 .            .            *            .            .
  9.870E+00 -6.639E-05 .            .            *            .            .
  9.880E+00 -6.573E-05 .            .            *            .            .
  9.890E+00 -6.507E-05 .            .            *            .            .
  9.900E+00 -6.443E-05 .            .            *            .            .
  9.910E+00 -6.379E-05 .            .            *            .            .
  9.920E+00 -6.315E-05 .            .            *            .            .
  9.930E+00 -6.252E-05 .            .            *            .            .
  9.940E+00 -6.190E-05 .            .            *            .            .
  9.950E+00 -6.128E-05 .            .            *            .            .
  9.960E+00 -6.067E-05 .            .            *            .            .
  9.970E+00 -6.007E-05 .            .            *            .            .
  9.980E+00 -5.947E-05 .            .            *            .            .
  9.990E+00 -5.888E-05 .            .            *            .            .
  1.000E+01 -5.830E-05 .            .            *            .            .
  1.001E+01 -5.772E-05 .            .            *            .            .
  1.002E+01 -5.714E-05 .            .            *            .            .
  1.003E+01 -5.657E-05 .            .            *            .            .
  1.004E+01 -5.601E-05 .            .            *            .            .
  1.005E+01 -5.545E-05 .            .            *            .            .
  1.006E+01 -5.490E-05 .            .            *            .            .
  1.007E+01 -5.435E-05 .            .            *            .            .
  1.008E+01 -5.381E-05 .            .            *            .            .
  1.009E+01 -5.328E-05 .            .            *            .            .
  1.010E+01 -5.275E-05 .            .            *            .            .
  1.011E+01 -5.222E-05 .            .            *            .            .
  1.012E+01 -5.170E-05 .            .            *            .            .
  1.013E+01 -5.119E-05 .            .            *            .            .
  1.014E+01 -5.068E-05 .            .            *            .            .
  1.015E+01 -5.018E-05 .            .            *            .            .
  1.016E+01 -4.968E-05 .            .            *            .            .
  1.017E+01 -4.918E-05 .            .            *            .            .
  1.018E+01 -4.869E-05 .            .            *            .            .
  1.019E+01 -4.821E-05 .            .            *            .            .
  1.020E+01 -4.773E-05 .            .            *            .            .
  1.021E+01 -4.725E-05 .            .            *            .            .
  1.022E+01 -4.678E-05 .            .            *            .            .
[...]
  1.247E+01 -4.931E-06 .            .            *            .            .
  1.248E+01 -4.882E-06 .            .            *            .            .
  1.249E+01 -4.833E-06 .            .            *            .            .
  1.250E+01 -4.785E-06 .            .            *            .            .
  1.251E+01 -4.738E-06 .            .            *            .            .
  1.252E+01 -4.690E-06 .            .            *            .            .
  1.253E+01 -4.644E-06 .            .            *            .            .
  1.254E+01 -4.598E-06 .            .            *            .            .
  1.255E+01 -4.552E-06 .            .            *            .            .
  1.256E+01 -4.506E-06 .            .            *            .            .
  1.257E+01 -4.462E-06 .            .            *            .            .
  1.258E+01 -4.417E-06 .            .            *            .            .
  1.259E+01 -4.373E-06 .            .            *            .            .
  1.260E+01 -4.330E-06 .            .            *            .            .
  1.261E+01 -4.287E-06 .            .            *            .            .
  1.262E+01 -4.244E-06 .            .            *            .            .
  1.263E+01 -4.202E-06 .            .            *            .            .
  1.264E+01 -4.160E-06 .            .            *            .            .
  1.265E+01 -4.119E-06 .            .            *            .            .
  1.266E+01 -4.078E-06 .            .            *            .            .
  1.267E+01 -4.037E-06 .            .            *            .            .
  1.268E+01 -3.997E-06 .            .            *            .            .
  1.269E+01 -3.957E-06 .            .            *            .            .
  1.270E+01 -3.918E-06 .            .            *            .            .
  1.271E+01 -3.879E-06 .            .            *            .            .
  1.272E+01 -3.840E-06 .            .            *            .            .
  1.273E+01 -3.802E-06 .            .            *            .            .
  1.274E+01 -3.764E-06 .            .            *            .            .
  1.275E+01 -3.727E-06 .            .            *            .            .
  1.276E+01 -3.690E-06 .            .            *            .            .
  1.277E+01 -3.653E-06 .            .            *            .            .
  1.278E+01 -3.617E-06 .            .            *            .            .
  1.279E+01 -3.581E-06 .            .            *            .            .
  1.280E+01 -3.545E-06 .            .            *            .            .
  1.281E+01 -3.510E-06 .            .            *            .            .
  1.282E+01 -3.475E-06 .            .            *            .            .
  1.283E+01 -3.440E-06 .            .            *            .            .
  1.284E+01 -3.406E-06 .            .            *            .            .
  1.285E+01 -3.372E-06 .            .            *            .            .
  1.286E+01 -3.338E-06 .            .            *            .            .
  1.287E+01 -3.305E-06 .            .            *            .            .
  1.288E+01 -3.272E-06 .            .            *            .            .
  1.289E+01 -3.240E-06 .            .            *            .            .
  1.290E+01 -3.208E-06 .            .            *            .            .
  1.291E+01 -3.176E-06 .            .            *            .            .
  1.292E+01 -3.144E-06 .            .            *            .            .
  1.293E+01 -3.113E-06 .            .            *            .            .
  1.294E+01 -3.082E-06 .            .            *            .            .
  1.295E+01 -3.051E-06 .            .            *            .            .
  1.296E+01 -3.021E-06 .            .            *            .            .
  1.297E+01 -2.991E-06 .            .            *            .            .
  1.298E+01 -2.961E-06 .            .            *            .            .
  1.299E+01 -2.932E-06 .            .            *            .            .
  1.300E+01 -2.902E-06 .            .            *            .            .
  1.301E+01 -2.873E-06 .            .            *            .            .
  1.302E+01 -2.845E-06 .            .            *            .            .
  1.303E+01 -2.817E-06 .            .            *            .            .
  1.304E+01 -2.789E-06 .            .            *            .            .
  1.305E+01 -2.761E-06 .            .            *            .            .
  1.306E+01 -2.733E-06 .            .            *            .            .
  1.307E+01 -2.706E-06 .            .            *            .            .
  1.308E+01 -2.679E-06 .            .            *            .            .
  1.309E+01 -2.653E-06 .            .            *            .            .
  1.310E+01 -2.626E-06 .            .            *            .            .
  1.311E+01 -2.600E-06 .            .            *            .            .
  1.312E+01 -2.574E-06 .            .            *            .            .
  1.313E+01 -2.549E-06 .            .            *            .            .
  1.314E+01 -2.523E-06 .            .            *            .            .
  1.315E+01 -2.498E-06 .            .            *            .            .
  1.316E+01 -2.473E-06 .            .            *            .            .
  1.317E+01 -2.449E-06 .            .            *            .            .
  1.318E+01 -2.424E-06 .            .            *            .            .
  1.319E+01 -2.400E-06 .            .            *            .            .
  1.320E+01 -2.376E-06 .            .            *            .            .
  1.321E+01 -2.353E-06 .            .            *            .            .
  1.322E+01 -2.329E-06 .            .            *            .            .
  1.323E+01 -2.306E-06 .            .            *            .            .
  1.324E+01 -2.283E-06 .            .            *            .            .
  1.325E+01 -2.260E-06 .            .            *            .            .
  1.326E+01 -2.238E-06 .            .            *            .            .
  1.327E+01 -2.216E-06 .            .            *            .            .
  1.328E+01 -2.194E-06 .            .            *            .            .
  1.329E+01 -2.172E-06 .            .            *            .            .
  1.330E+01 -2.150E-06 .            .            *            .            .
  1.331E+01 -2.129E-06 .            .            *            .            .
  1.332E+01 -2.108E-06 .            .            *            .            .
  1.333E+01 -2.087E-06 .            .            *            .            .
  1.334E+01 -2.066E-06 .            .            *            .            .
  1.335E+01 -2.045E-06 .            .            *            .            .
  1.336E+01 -2.025E-06 .            .            *            .            .
  1.337E+01 -2.005E-06 .            .            *            .            .
  1.338E+01 -1.985E-06 .            .            *            .            .
  1.339E+01 -1.965E-06 .            .            *            .            .
  1.340E+01 -1.946E-06 .            .            *            .            .
  1.341E+01 -1.926E-06 .            .            *            .            .
  1.342E+01 -1.907E-06 .            .            *            .            .
  1.343E+01 -1.888E-06 .            .            *            .            .
  1.344E+01 -1.869E-06 .            .            *            .            .
  1.345E+01 -1.851E-06 .            .            *            .            .
  1.346E+01 -1.832E-06 .            .            *            .            .
  1.347E+01 -1.814E-06 .            .            *            .            .
  1.348E+01 -1.796E-06 .            .            *            .            .
  1.349E+01 -1.778E-06 .            .            *            .            .
  1.350E+01 -1.760E-06 .            .            *            .            .
  1.351E+01 -1.743E-06 .            .            *            .            .
  1.352E+01 -1.726E-06 .            .            *            .            .
  1.353E+01 -1.708E-06 .            .            *            .            .
  1.354E+01 -1.691E-06 .            .            *            .            .
  1.355E+01 -1.675E-06 .            .            *            .            .
  1.356E+01 -1.658E-06 .            .            *            .            .
  1.357E+01 -1.641E-06 .            .            *            .            .
  1.358E+01 -1.625E-06 .            .            *            .            .
  1.359E+01 -1.609E-06 .            .            *            .            .
  1.360E+01 -1.593E-06 .            .            *            .            .
  1.361E+01 -1.577E-06 .            .            *            .            .
  1.362E+01 -1.561E-06 .            .            *            .            .
  1.363E+01 -1.546E-06 .            .            *            .            .
  1.364E+01 -1.530E-06 .            .            *            .            .
  1.365E+01 -1.515E-06 .            .            *            .            .
  1.366E+01 -1.500E-06 .            .            *            .            .
  1.367E+01 -1.485E-06 .            .            *            .            .
  1.368E+01 -1.470E-06 .            .            *            .            .
  1.369E+01 -1.456E-06 .            .            *            .            .
  1.370E+01 -1.441E-06 .            .            *            .            .
  1.371E+01 -1.427E-06 .            .            *            .            .
  1.372E+01 -1.413E-06 .            .            *            .            .
  1.373E+01 -1.399E-06 .            .            *            .            .
  1.374E+01 -1.385E-06 .            .            *            .            .
  1.375E+01 -1.371E-06 .            .            *            .            .
  1.376E+01 -1.357E-06 .            .            *            .            .
  1.377E+01 -1.344E-06 .            .            *            .            .
  1.378E+01 -1.330E-06 .            .            *            .            .
  1.379E+01 -1.317E-06 .            .            *            .            .
  1.380E+01 -1.304E-06 .            .            *            .            .
  1.381E+01 -1.291E-06 .            .            *            .            .
  1.382E+01 -1.278E-06 .            .            *            .            .
  1.383E+01 -1.266E-06 .            .            *            .            .
  1.384E+01 -1.253E-06 .            .            *            .            .
  1.385E+01 -1.241E-06 .            .            *            .            .
  1.386E+01 -1.228E-06 .            .            *            .            .
  1.387E+01 -1.216E-06 .            .            *            .            .
  1.388E+01 -1.204E-06 .            .            *            .            .
  1.389E+01 -1.192E-06 .            .            *            .            .
  1.390E+01 -1.180E-06 .            .            *            .            .
  1.391E+01 -1.168E-06 .            .            *            .            .
  1.392E+01 -1.157E-06 .            .            *            .            .
  1.393E+01 -1.145E-06 .            .            *            .            .
  1.394E+01 -1.134E-06 .            .            *            .            .
  1.395E+01 -1.122E-06 .            .            *            .            .
  1.396E+01 -1.111E-06 .            .            *            .            .
  1.397E+01 -1.100E-06 .            .            *            .            .
  1.398E+01 -1.089E-06 .            .            *            .            .
  1.399E+01 -1.078E-06 .            .            *            .            .
  1.400E+01 -1.068E-06 .            .            *            .            .
  1.401E+01 -1.057E-06 .            .            *            .            .
  1.402E+01 -1.047E-06 .            .            *            .            .
  1.403E+01 -1.036E-06 .            .            *            .            .
  1.404E+01 -1.026E-06 .            .            *            .            .
  1.405E+01 -1.016E-06 .            .            *            .            .
  1.406E+01 -1.006E-06 .            .            *            .            .
  1.407E+01 -9.955E-07 .            .            *            .            .
  1.408E+01 -9.856E-07 .            .            *            .            .
  1.409E+01 -9.758E-07 .            .            *            .            .
  1.410E+01 -9.661E-07 .            .            *            .            .
  1.411E+01 -9.565E-07 .            .            *            .            .
  1.412E+01 -9.470E-07 .            .            *            .            .
  1.413E+01 -9.376E-07 .            .            *            .            .
  1.414E+01 -9.282E-07 .            .            *            .            .
  1.415E+01 -9.190E-07 .            .            *            .            .
  1.416E+01 -9.098E-07 .            .            *            .            .
  1.417E+01 -9.008E-07 .            .            *            .            .
  1.418E+01 -8.918E-07 .            .            *            .            .
  1.419E+01 -8.830E-07 .            .            *            .            .
  1.420E+01 -8.742E-07 .            .            *            .            .
  1.421E+01 -8.655E-07 .            .            *            .            .
  1.422E+01 -8.569E-07 .            .            *            .            .
  1.423E+01 -8.483E-07 .            .            *            .            .
  1.424E+01 -8.399E-07 .            .            *            .            .
  1.425E+01 -8.315E-07 .            .            *            .            .
  1.426E+01 -8.233E-07 .            .            *            .            .
  1.427E+01 -8.151E-07 .            .            *            .            .
  1.428E+01 -8.070E-07 .            .            *            .            .
  1.429E+01 -7.989E-07 .            .            *            .            .
  1.430E+01 -7.910E-07 .            .            *            .            .
  1.431E+01 -7.831E-07 .            .            *            .            .
  1.432E+01 -7.753E-07 .            .            *            .            .
  1.433E+01 -7.676E-07 .            .            *            .            .
  1.434E+01 -7.600E-07 .            .            *            .            .
  1.435E+01 -7.524E-07 .            .            *            .            .
  1.436E+01 -7.449E-07 .            .            *            .            .
  1.437E+01 -7.375E-07 .            .            *            .            .
  1.438E+01 -7.302E-07 .            .            *            .            .
  1.439E+01 -7.229E-07 .            .            *            .            .
  1.440E+01 -7.157E-07 .            .            *            .            .
  1.441E+01 -7.086E-07 .            .            *            .            .
  1.442E+01 -7.015E-07 .            .            *            .            .
  1.443E+01 -6.946E-07 .            .            *            .            .
  1.444E+01 -6.876E-07 .            .            *            .            .
  1.445E+01 -6.808E-07 .            .            *            .            .
  1.446E+01 -6.740E-07 .            .            *            .            .
  1.447E+01 -6.673E-07 .            .            *            .            .
  1.448E+01 -6.607E-07 .            .            *            .            .
  1.449E+01 -6.541E-07 .            .            *            .            .
  1.450E+01 -6.476E-07 .            .            *            .            .
  1.451E+01 -6.412E-07 .            .            *            .            .
  1.452E+01 -6.348E-07 .            .            *            .            .
  1.453E+01 -6.285E-07 .            .            *            .            .
  1.454E+01 -6.222E-07 .            .            *            .            .
  1.455E+01 -6.160E-07 .            .            *            .            .
  1.456E+01 -6.099E-07 .            .            *            .            .
  1.457E+01 -6.038E-07 .            .            *            .            .
  1.458E+01 -5.978E-07 .            .            *            .            .
  1.459E+01 -5.919E-07 .            .            *            .            .
  1.460E+01 -5.860E-07 .            .            *            .            .
  1.461E+01 -5.801E-07 .            .            *            .            .
  1.462E+01 -5.744E-07 .            .            *            .            .
  1.463E+01 -5.687E-07 .            .            *            .            .
  1.464E+01 -5.630E-07 .            .            *            .            .
  1.465E+01 -5.574E-07 .            .            *            .            .
  1.466E+01 -5.518E-07 .            .            *            .            .
  1.467E+01 -5.464E-07 .            .            *            .            .
  1.468E+01 -5.409E-07 .            .            *            .            .
  1.469E+01 -5.355E-07 .            .            *            .            .
  1.470E+01 -5.302E-07 .            .            *            .            .
  1.471E+01 -5.249E-07 .            .            *            .            .
  1.472E+01 -5.197E-07 .            .            *            .            .
  1.473E+01 -5.145E-07 .            .            *            .            .
  1.474E+01 -5.094E-07 .            .            *            .            .
  1.475E+01 -5.044E-07 .            .            *            .            .
  1.476E+01 -4.993E-07 .            .            *            .            .
  1.477E+01 -4.944E-07 .            .            *            .            .
  1.478E+01 -4.894E-07 .            .            *            .            .
  1.479E+01 -4.846E-07 .            .            *            .            .
  1.480E+01 -4.798E-07 .            .            *            .            .
  1.481E+01 -4.750E-07 .            .            *            .            .
  1.482E+01 -4.703E-07 .            .            *            .            .
  1.483E+01 -4.656E-07 .            .            *            .            .
  1.484E+01 -4.609E-07 .            .            *            .            .
  1.485E+01 -4.564E-07 .            .            *            .            .
  1.486E+01 -4.518E-07 .            .            *            .            .
  1.487E+01 -4.473E-07 .            .            *            .            .
  1.488E+01 -4.429E-07 .            .            *            .            .
  1.489E+01 -4.385E-07 .            .            *            .            .
  1.490E+01 -4.341E-07 .            .            *            .            .
  1.491E+01 -4.298E-07 .            .            *            .            .
  1.492E+01 -4.255E-07 .            .            *            .            .
  1.493E+01 -4.213E-07 .            .            *            .            .
  1.494E+01 -4.171E-07 .            .            *            .            .
  1.495E+01 -4.129E-07 .            .            *            .            .
  1.496E+01 -4.088E-07 .            .            *            .            .
  1.497E+01 -4.048E-07 .            .            *            .            .
  1.498E+01 -4.007E-07 .            .            *            .            .
  1.499E+01 -3.967E-07 .            .            *            .            .
  1.500E+01 -3.928E-07 .            .            *            .            .
                       - - - - - - - - - - - - - - - - - - - - - - - - - - - 




          JOB CONCLUDED

**** 09/19/21 12:47:34 ****** PSpice 17.2.0 (March 2016) ****** ID# 0 ********

 eg16.12


 ****     JOB STATISTICS SUMMARY


******************************************************************************



  Total job time (using Solver 1)   =         .05
