
**** 10/23/21 12:24:21 ****** PSpice 17.2.0 (March 2016) ****** ID# 0 ********

 eg16.34


 ****     CIRCUIT DESCRIPTION


******************************************************************************



V1 1 0 AC 1
R4 6 0 4E3
R1 1 2 1E3
R2 3 4 1E6
R3 5 4 1E3
C1 2 3 10E-6
C2 4 6 10E-6
V2 5 0 DC 10
M1 4 3 0 0 MMOD
.MODEL MMOD NMOS (VTO=2 KP=0.5E-3 CGSO=10E-6 )
.AC DEC 100 1 10E5
.PRINT AC VP(6) V(3)
.TF V(4) V1
.OP
.PROBE
.END

**** 10/23/21 12:24:21 ****** PSpice 17.2.0 (March 2016) ****** ID# 0 ********

 eg16.34


 ****     MOSFET MODEL PARAMETERS


******************************************************************************




               MMOD            
               NMOS            
       LEVEL    1            
           L  100.000000E-06 
           W  100.000000E-06 
         VTO    2            
          KP  500.000000E-06 
       GAMMA    0            
         PHI     .6          
      LAMBDA    0            
          IS   10.000000E-15 
          JS    0            
          PB     .8          
        PBSW     .8          
          CJ    0            
        CJSW    0            
        CGSO   10.000000E-06 
        CGDO    0            
        CGBO    0            
         TOX    0            
          XJ    0            
       UCRIT   10.000000E+03 
      DIOMOD    1            
         VFB    0            
        LETA    0            
        WETA    0            
          U0    0            
        TEMP    0            
         VDD    5            
       XPART    0            


**** 10/23/21 12:24:21 ****** PSpice 17.2.0 (March 2016) ****** ID# 0 ********

 eg16.34


 ****     SMALL SIGNAL BIAS SOLUTION       TEMPERATURE =   27.000 DEG C


******************************************************************************



 NODE   VOLTAGE     NODE   VOLTAGE     NODE   VOLTAGE     NODE   VOLTAGE


(    1)    0.0000  (    2)    0.0000  (    3)    6.0000  (    4)    6.0000      

(    5)   10.0000  (    6)    0.0000  




    VOLTAGE SOURCE CURRENTS
    NAME         CURRENT

    V1           0.000E+00
    V2          -4.000E-03

    TOTAL POWER DISSIPATION   4.00E-02  WATTS


**** 10/23/21 12:24:21 ****** PSpice 17.2.0 (March 2016) ****** ID# 0 ********

 eg16.34


 ****     OPERATING POINT INFORMATION      TEMPERATURE =   27.000 DEG C


******************************************************************************






**** MOSFETS


NAME         M1        
MODEL        MMOD      
ID           4.00E-03 
VGS          6.00E+00 
VDS          6.00E+00 
VBS          0.00E+00 
VTH          2.00E+00 
VDSAT        4.00E+00 
Lin0/Sat1   -1.00E+00 
if          -1.00E+00 
ir          -1.00E+00 
TAU         -1.00E+00 
GM           2.00E-03 
GDS          0.00E+00 
GMB          0.00E+00 
CBD          0.00E+00 
CBS          0.00E+00 
CGSOV        1.00E-09 
CGDOV        0.00E+00 
CGBOV        0.00E+00 
CGS          0.00E+00 
CGD          0.00E+00 
CGB          0.00E+00 




 ****     SMALL-SIGNAL CHARACTERISTICS


      V(4)/V1 =  0.000E+00

      INPUT RESISTANCE AT V1 =  1.000E+20

      OUTPUT RESISTANCE AT V(4) =  3.333E+02

**** 10/23/21 12:24:21 ****** PSpice 17.2.0 (March 2016) ****** ID# 0 ********

 eg16.34


 ****     AC ANALYSIS                      TEMPERATURE =   27.000 DEG C


******************************************************************************



  FREQ        VP(6)       V(3)        


   1.000E+00  -1.047E+02   9.976E-01
   1.023E+00  -1.052E+02   9.977E-01
   1.047E+00  -1.056E+02   9.977E-01
   1.072E+00  -1.061E+02   9.978E-01
   1.096E+00  -1.065E+02   9.978E-01
   1.122E+00  -1.070E+02   9.978E-01
   1.148E+00  -1.075E+02   9.979E-01
   1.175E+00  -1.080E+02   9.979E-01
   1.202E+00  -1.085E+02   9.979E-01
   1.230E+00  -1.089E+02   9.980E-01
   1.259E+00  -1.094E+02   9.980E-01
   1.288E+00  -1.099E+02   9.980E-01
   1.318E+00  -1.105E+02   9.980E-01
   1.349E+00  -1.110E+02   9.981E-01
   1.380E+00  -1.115E+02   9.981E-01
   1.413E+00  -1.120E+02   9.981E-01
   1.445E+00  -1.126E+02   9.981E-01
   1.479E+00  -1.131E+02   9.981E-01
   1.514E+00  -1.137E+02   9.981E-01
   1.549E+00  -1.142E+02   9.981E-01
   1.585E+00  -1.148E+02   9.982E-01
   1.622E+00  -1.154E+02   9.982E-01
   1.660E+00  -1.159E+02   9.982E-01
   1.698E+00  -1.165E+02   9.982E-01
   1.738E+00  -1.171E+02   9.982E-01
   1.778E+00  -1.177E+02   9.982E-01
   1.820E+00  -1.183E+02   9.982E-01
   1.862E+00  -1.189E+02   9.982E-01
   1.905E+00  -1.195E+02   9.982E-01
   1.950E+00  -1.201E+02   9.982E-01
   1.995E+00  -1.208E+02   9.982E-01
   2.042E+00  -1.214E+02   9.982E-01
   2.089E+00  -1.220E+02   9.982E-01
   2.138E+00  -1.226E+02   9.982E-01
   2.188E+00  -1.233E+02   9.982E-01
   2.239E+00  -1.239E+02   9.982E-01
   2.291E+00  -1.246E+02   9.982E-01
   2.344E+00  -1.252E+02   9.981E-01
   2.399E+00  -1.259E+02   9.981E-01
   2.455E+00  -1.266E+02   9.981E-01
   2.512E+00  -1.272E+02   9.981E-01
   2.570E+00  -1.279E+02   9.981E-01
   2.630E+00  -1.286E+02   9.981E-01
   2.692E+00  -1.292E+02   9.981E-01
   2.754E+00  -1.299E+02   9.981E-01
   2.818E+00  -1.306E+02   9.981E-01
   2.884E+00  -1.313E+02   9.981E-01
   2.951E+00  -1.320E+02   9.980E-01
   3.020E+00  -1.326E+02   9.980E-01
   3.090E+00  -1.333E+02   9.980E-01
   3.162E+00  -1.340E+02   9.980E-01
   3.236E+00  -1.347E+02   9.980E-01
   3.311E+00  -1.353E+02   9.980E-01
   3.388E+00  -1.360E+02   9.980E-01
   3.467E+00  -1.367E+02   9.980E-01
   3.548E+00  -1.374E+02   9.979E-01
   3.631E+00  -1.380E+02   9.979E-01
   3.715E+00  -1.387E+02   9.979E-01
   3.802E+00  -1.394E+02   9.979E-01
   3.890E+00  -1.401E+02   9.979E-01
   3.981E+00  -1.407E+02   9.979E-01
   4.074E+00  -1.414E+02   9.979E-01
   4.169E+00  -1.420E+02   9.978E-01
   4.266E+00  -1.427E+02   9.978E-01
   4.365E+00  -1.433E+02   9.978E-01
   4.467E+00  -1.440E+02   9.978E-01
   4.571E+00  -1.446E+02   9.978E-01
   4.677E+00  -1.452E+02   9.978E-01
   4.786E+00  -1.458E+02   9.978E-01
   4.898E+00  -1.465E+02   9.977E-01
   5.012E+00  -1.471E+02   9.977E-01
   5.129E+00  -1.477E+02   9.977E-01
   5.248E+00  -1.483E+02   9.977E-01
   5.370E+00  -1.489E+02   9.977E-01
   5.495E+00  -1.495E+02   9.977E-01
   5.623E+00  -1.500E+02   9.977E-01
   5.754E+00  -1.506E+02   9.977E-01
   5.888E+00  -1.512E+02   9.976E-01
   6.026E+00  -1.517E+02   9.976E-01
   6.166E+00  -1.523E+02   9.976E-01
   6.310E+00  -1.528E+02   9.976E-01
   6.457E+00  -1.534E+02   9.976E-01
   6.607E+00  -1.539E+02   9.976E-01
   6.761E+00  -1.544E+02   9.976E-01
   6.918E+00  -1.549E+02   9.976E-01
   7.079E+00  -1.554E+02   9.976E-01
   7.244E+00  -1.559E+02   9.975E-01
   7.413E+00  -1.564E+02   9.975E-01
   7.586E+00  -1.569E+02   9.975E-01
   7.762E+00  -1.574E+02   9.975E-01
   7.943E+00  -1.579E+02   9.975E-01
   8.128E+00  -1.583E+02   9.975E-01
   8.318E+00  -1.588E+02   9.975E-01
   8.511E+00  -1.592E+02   9.975E-01
   8.710E+00  -1.596E+02   9.975E-01
   8.913E+00  -1.601E+02   9.975E-01
   9.120E+00  -1.605E+02   9.975E-01
   9.333E+00  -1.609E+02   9.975E-01
   9.550E+00  -1.613E+02   9.975E-01
   9.772E+00  -1.617E+02   9.975E-01
   1.000E+01  -1.621E+02   9.974E-01
   1.023E+01  -1.625E+02   9.974E-01
   1.047E+01  -1.629E+02   9.974E-01
   1.072E+01  -1.632E+02   9.974E-01
   1.096E+01  -1.636E+02   9.974E-01
   1.122E+01  -1.639E+02   9.974E-01
   1.148E+01  -1.643E+02   9.974E-01
   1.175E+01  -1.646E+02   9.974E-01
   1.202E+01  -1.650E+02   9.974E-01
   1.230E+01  -1.653E+02   9.974E-01
   1.259E+01  -1.656E+02   9.974E-01
   1.288E+01  -1.659E+02   9.974E-01
   1.318E+01  -1.662E+02   9.974E-01
   1.349E+01  -1.665E+02   9.974E-01
   1.380E+01  -1.668E+02   9.974E-01
   1.413E+01  -1.671E+02   9.974E-01
   1.445E+01  -1.674E+02   9.974E-01
   1.479E+01  -1.677E+02   9.974E-01
   1.514E+01  -1.680E+02   9.974E-01
   1.549E+01  -1.682E+02   9.974E-01
   1.585E+01  -1.685E+02   9.974E-01
   1.622E+01  -1.687E+02   9.974E-01
   1.660E+01  -1.690E+02   9.974E-01
   1.698E+01  -1.692E+02   9.974E-01
   1.738E+01  -1.695E+02   9.974E-01
   1.778E+01  -1.697E+02   9.974E-01
   1.820E+01  -1.699E+02   9.974E-01
   1.862E+01  -1.702E+02   9.974E-01
   1.905E+01  -1.704E+02   9.974E-01
   1.950E+01  -1.706E+02   9.973E-01
   1.995E+01  -1.708E+02   9.973E-01
   2.042E+01  -1.710E+02   9.973E-01
   2.089E+01  -1.712E+02   9.973E-01
   2.138E+01  -1.714E+02   9.973E-01
   2.188E+01  -1.716E+02   9.973E-01
   2.239E+01  -1.718E+02   9.973E-01
   2.291E+01  -1.720E+02   9.973E-01
   2.344E+01  -1.722E+02   9.973E-01
   2.399E+01  -1.723E+02   9.973E-01
   2.455E+01  -1.725E+02   9.973E-01
   2.512E+01  -1.727E+02   9.973E-01
   2.570E+01  -1.729E+02   9.973E-01
   2.630E+01  -1.730E+02   9.973E-01
   2.692E+01  -1.732E+02   9.973E-01
   2.754E+01  -1.733E+02   9.973E-01
   2.818E+01  -1.735E+02   9.973E-01
   2.884E+01  -1.736E+02   9.973E-01
   2.951E+01  -1.738E+02   9.973E-01
   3.020E+01  -1.739E+02   9.973E-01
   3.090E+01  -1.741E+02   9.973E-01
   3.162E+01  -1.742E+02   9.973E-01
   3.236E+01  -1.743E+02   9.973E-01
   3.311E+01  -1.744E+02   9.973E-01
   3.388E+01  -1.746E+02   9.973E-01
   3.467E+01  -1.747E+02   9.973E-01
   3.548E+01  -1.748E+02   9.973E-01
   3.631E+01  -1.749E+02   9.973E-01
   3.715E+01  -1.751E+02   9.973E-01
   3.802E+01  -1.752E+02   9.973E-01
   3.890E+01  -1.753E+02   9.973E-01
   3.981E+01  -1.754E+02   9.973E-01
   4.074E+01  -1.755E+02   9.973E-01
   4.169E+01  -1.756E+02   9.973E-01
   4.266E+01  -1.757E+02   9.973E-01
   4.365E+01  -1.758E+02   9.973E-01
   4.467E+01  -1.759E+02   9.973E-01
   4.571E+01  -1.760E+02   9.973E-01
   4.677E+01  -1.761E+02   9.973E-01
   4.786E+01  -1.762E+02   9.973E-01
   4.898E+01  -1.762E+02   9.973E-01
   5.012E+01  -1.763E+02   9.973E-01
   5.129E+01  -1.764E+02   9.973E-01
   5.248E+01  -1.765E+02   9.973E-01
   5.370E+01  -1.766E+02   9.973E-01
   5.495E+01  -1.767E+02   9.973E-01
   5.623E+01  -1.767E+02   9.973E-01
   5.754E+01  -1.768E+02   9.973E-01
   5.888E+01  -1.769E+02   9.973E-01
   6.026E+01  -1.770E+02   9.973E-01
   6.166E+01  -1.770E+02   9.973E-01
   6.310E+01  -1.771E+02   9.973E-01
   6.457E+01  -1.772E+02   9.973E-01
   6.607E+01  -1.772E+02   9.973E-01
   6.761E+01  -1.773E+02   9.973E-01
   6.918E+01  -1.774E+02   9.973E-01
   7.079E+01  -1.774E+02   9.973E-01
   7.244E+01  -1.775E+02   9.973E-01
   7.413E+01  -1.775E+02   9.973E-01
   7.586E+01  -1.776E+02   9.973E-01
   7.762E+01  -1.776E+02   9.973E-01
   7.943E+01  -1.777E+02   9.973E-01
   8.128E+01  -1.778E+02   9.973E-01
   8.318E+01  -1.778E+02   9.973E-01
   8.511E+01  -1.779E+02   9.973E-01
   8.710E+01  -1.779E+02   9.973E-01
   8.913E+01  -1.780E+02   9.973E-01
   9.120E+01  -1.780E+02   9.973E-01
   9.333E+01  -1.781E+02   9.973E-01
   9.550E+01  -1.781E+02   9.973E-01
   9.772E+01  -1.781E+02   9.973E-01
   1.000E+02  -1.782E+02   9.973E-01
   1.023E+02  -1.782E+02   9.973E-01
   1.047E+02  -1.783E+02   9.973E-01
   1.072E+02  -1.783E+02   9.973E-01
   1.096E+02  -1.784E+02   9.973E-01
   1.122E+02  -1.784E+02   9.973E-01
   1.148E+02  -1.784E+02   9.973E-01
   1.175E+02  -1.785E+02   9.973E-01
   1.202E+02  -1.785E+02   9.973E-01
   1.230E+02  -1.785E+02   9.973E-01
   1.259E+02  -1.786E+02   9.973E-01
   1.288E+02  -1.786E+02   9.973E-01
   1.318E+02  -1.786E+02   9.973E-01
   1.349E+02  -1.787E+02   9.973E-01
   1.380E+02  -1.787E+02   9.973E-01
   1.413E+02  -1.787E+02   9.973E-01
   1.445E+02  -1.788E+02   9.973E-01
   1.479E+02  -1.788E+02   9.973E-01
   1.514E+02  -1.788E+02   9.973E-01
   1.549E+02  -1.789E+02   9.973E-01
   1.585E+02  -1.789E+02   9.973E-01
   1.622E+02  -1.789E+02   9.973E-01
   1.660E+02  -1.789E+02   9.973E-01
   1.698E+02  -1.790E+02   9.973E-01
   1.738E+02  -1.790E+02   9.973E-01
   1.778E+02  -1.790E+02   9.973E-01
   1.820E+02  -1.791E+02   9.973E-01
   1.862E+02  -1.791E+02   9.973E-01
   1.905E+02  -1.791E+02   9.973E-01
   1.950E+02  -1.791E+02   9.973E-01
   1.995E+02  -1.791E+02   9.973E-01
   2.042E+02  -1.792E+02   9.973E-01
   2.089E+02  -1.792E+02   9.973E-01
   2.138E+02  -1.792E+02   9.973E-01
   2.188E+02  -1.792E+02   9.973E-01
   2.239E+02  -1.793E+02   9.973E-01
   2.291E+02  -1.793E+02   9.973E-01
   2.344E+02  -1.793E+02   9.973E-01
   2.399E+02  -1.793E+02   9.973E-01
   2.455E+02  -1.793E+02   9.973E-01
   2.512E+02  -1.794E+02   9.973E-01
   2.570E+02  -1.794E+02   9.973E-01
   2.630E+02  -1.794E+02   9.973E-01
   2.692E+02  -1.794E+02   9.973E-01
   2.754E+02  -1.794E+02   9.973E-01
   2.818E+02  -1.794E+02   9.973E-01
   2.884E+02  -1.795E+02   9.973E-01
   2.951E+02  -1.795E+02   9.973E-01
   3.020E+02  -1.795E+02   9.973E-01
   3.090E+02  -1.795E+02   9.973E-01
   3.162E+02  -1.795E+02   9.973E-01
   3.236E+02  -1.795E+02   9.973E-01
   3.311E+02  -1.796E+02   9.973E-01
   3.388E+02  -1.796E+02   9.973E-01
   3.467E+02  -1.796E+02   9.973E-01
   3.548E+02  -1.796E+02   9.973E-01
   3.631E+02  -1.796E+02   9.973E-01
   3.715E+02  -1.796E+02   9.973E-01
   3.802E+02  -1.797E+02   9.973E-01
   3.890E+02  -1.797E+02   9.973E-01
   3.981E+02  -1.797E+02   9.973E-01
   4.074E+02  -1.797E+02   9.973E-01
   4.169E+02  -1.797E+02   9.973E-01
   4.266E+02  -1.797E+02   9.973E-01
   4.365E+02  -1.797E+02   9.973E-01
   4.467E+02  -1.797E+02   9.973E-01
   4.571E+02  -1.798E+02   9.973E-01
   4.677E+02  -1.798E+02   9.973E-01
   4.786E+02  -1.798E+02   9.973E-01
   4.898E+02  -1.798E+02   9.973E-01
   5.012E+02  -1.798E+02   9.973E-01
   5.129E+02  -1.798E+02   9.973E-01
   5.248E+02  -1.798E+02   9.973E-01
   5.370E+02  -1.798E+02   9.973E-01
   5.495E+02  -1.799E+02   9.973E-01
   5.623E+02  -1.799E+02   9.973E-01
   5.754E+02  -1.799E+02   9.973E-01
   5.888E+02  -1.799E+02   9.973E-01
   6.026E+02  -1.799E+02   9.973E-01
   6.166E+02  -1.799E+02   9.973E-01
   6.310E+02  -1.799E+02   9.973E-01
   6.457E+02  -1.799E+02   9.973E-01
   6.607E+02  -1.800E+02   9.973E-01
   6.761E+02  -1.800E+02   9.973E-01
   6.918E+02  -1.800E+02   9.973E-01
   7.079E+02  -1.800E+02   9.973E-01
   7.244E+02   1.800E+02   9.973E-01
   7.413E+02   1.800E+02   9.973E-01
   7.586E+02   1.800E+02   9.973E-01
   7.762E+02   1.800E+02   9.973E-01
   7.943E+02   1.799E+02   9.973E-01
   8.128E+02   1.799E+02   9.973E-01
   8.318E+02   1.799E+02   9.973E-01
   8.511E+02   1.799E+02   9.973E-01
   8.710E+02   1.799E+02   9.973E-01
   8.913E+02   1.799E+02   9.973E-01
   9.120E+02   1.799E+02   9.973E-01
   9.333E+02   1.799E+02   9.973E-01
   9.550E+02   1.799E+02   9.973E-01
   9.772E+02   1.798E+02   9.973E-01
   1.000E+03   1.798E+02   9.973E-01
   1.023E+03   1.798E+02   9.973E-01
   1.047E+03   1.798E+02   9.973E-01
   1.072E+03   1.798E+02   9.973E-01
   1.096E+03   1.798E+02   9.973E-01
   1.122E+03   1.798E+02   9.973E-01
   1.148E+03   1.797E+02   9.973E-01
   1.175E+03   1.797E+02   9.973E-01
   1.202E+03   1.797E+02   9.973E-01
   1.230E+03   1.797E+02   9.973E-01
   1.259E+03   1.797E+02   9.973E-01
   1.288E+03   1.797E+02   9.973E-01
   1.318E+03   1.797E+02   9.973E-01
   1.349E+03   1.797E+02   9.973E-01
   1.380E+03   1.796E+02   9.973E-01
   1.413E+03   1.796E+02   9.973E-01
   1.445E+03   1.796E+02   9.973E-01
   1.479E+03   1.796E+02   9.973E-01
   1.514E+03   1.796E+02   9.973E-01
   1.549E+03   1.796E+02   9.973E-01
   1.585E+03   1.795E+02   9.973E-01
   1.622E+03   1.795E+02   9.973E-01
   1.660E+03   1.795E+02   9.973E-01
   1.698E+03   1.795E+02   9.973E-01
   1.738E+03   1.795E+02   9.973E-01
   1.778E+03   1.795E+02   9.972E-01
   1.820E+03   1.794E+02   9.972E-01
   1.862E+03   1.794E+02   9.972E-01
   1.905E+03   1.794E+02   9.972E-01
   1.950E+03   1.794E+02   9.972E-01
   1.995E+03   1.794E+02   9.972E-01
   2.042E+03   1.794E+02   9.972E-01
   2.089E+03   1.793E+02   9.972E-01
   2.138E+03   1.793E+02   9.972E-01
   2.188E+03   1.793E+02   9.972E-01
   2.239E+03   1.793E+02   9.972E-01
   2.291E+03   1.793E+02   9.972E-01
   2.344E+03   1.792E+02   9.972E-01
   2.399E+03   1.792E+02   9.972E-01
   2.455E+03   1.792E+02   9.972E-01
   2.512E+03   1.792E+02   9.972E-01
   2.570E+03   1.791E+02   9.972E-01
   2.630E+03   1.791E+02   9.972E-01
   2.692E+03   1.791E+02   9.972E-01
   2.754E+03   1.791E+02   9.972E-01
   2.818E+03   1.791E+02   9.972E-01
   2.884E+03   1.790E+02   9.971E-01
   2.951E+03   1.790E+02   9.971E-01
   3.020E+03   1.790E+02   9.971E-01
   3.090E+03   1.790E+02   9.971E-01
   3.162E+03   1.789E+02   9.971E-01
   3.236E+03   1.789E+02   9.971E-01
   3.311E+03   1.789E+02   9.971E-01
   3.388E+03   1.788E+02   9.971E-01
   3.467E+03   1.788E+02   9.971E-01
   3.548E+03   1.788E+02   9.971E-01
   3.631E+03   1.787E+02   9.971E-01
   3.715E+03   1.787E+02   9.970E-01
   3.802E+03   1.787E+02   9.970E-01
   3.890E+03   1.787E+02   9.970E-01
   3.981E+03   1.786E+02   9.970E-01
   4.074E+03   1.786E+02   9.970E-01
   4.169E+03   1.785E+02   9.970E-01
   4.266E+03   1.785E+02   9.970E-01
   4.365E+03   1.785E+02   9.969E-01
   4.467E+03   1.784E+02   9.969E-01
   4.571E+03   1.784E+02   9.969E-01
   4.677E+03   1.784E+02   9.969E-01
   4.786E+03   1.783E+02   9.969E-01
   4.898E+03   1.783E+02   9.968E-01
   5.012E+03   1.782E+02   9.968E-01
   5.129E+03   1.782E+02   9.968E-01
   5.248E+03   1.782E+02   9.968E-01
   5.370E+03   1.781E+02   9.967E-01
   5.495E+03   1.781E+02   9.967E-01
   5.623E+03   1.780E+02   9.967E-01
   5.754E+03   1.780E+02   9.967E-01
   5.888E+03   1.779E+02   9.966E-01
   6.026E+03   1.779E+02   9.966E-01
   6.166E+03   1.778E+02   9.966E-01
   6.310E+03   1.778E+02   9.965E-01
   6.457E+03   1.777E+02   9.965E-01
   6.607E+03   1.777E+02   9.965E-01
   6.761E+03   1.776E+02   9.964E-01
   6.918E+03   1.775E+02   9.964E-01
   7.079E+03   1.775E+02   9.963E-01
   7.244E+03   1.774E+02   9.963E-01
   7.413E+03   1.774E+02   9.962E-01
   7.586E+03   1.773E+02   9.962E-01
   7.762E+03   1.772E+02   9.961E-01
   7.943E+03   1.772E+02   9.961E-01
   8.128E+03   1.771E+02   9.960E-01
   8.318E+03   1.770E+02   9.960E-01
   8.511E+03   1.770E+02   9.959E-01
   8.710E+03   1.769E+02   9.958E-01
   8.913E+03   1.768E+02   9.958E-01
   9.120E+03   1.768E+02   9.957E-01
   9.333E+03   1.767E+02   9.956E-01
   9.550E+03   1.766E+02   9.955E-01
   9.772E+03   1.765E+02   9.954E-01
   1.000E+04   1.764E+02   9.954E-01
   1.023E+04   1.763E+02   9.953E-01
   1.047E+04   1.763E+02   9.952E-01
   1.072E+04   1.762E+02   9.951E-01
   1.096E+04   1.761E+02   9.950E-01
   1.122E+04   1.760E+02   9.949E-01
   1.148E+04   1.759E+02   9.947E-01
   1.175E+04   1.758E+02   9.946E-01
   1.202E+04   1.757E+02   9.945E-01
   1.230E+04   1.756E+02   9.944E-01
   1.259E+04   1.755E+02   9.942E-01
   1.288E+04   1.754E+02   9.941E-01
   1.318E+04   1.753E+02   9.939E-01
   1.349E+04   1.752E+02   9.938E-01
   1.380E+04   1.751E+02   9.936E-01
   1.413E+04   1.750E+02   9.934E-01
   1.445E+04   1.748E+02   9.932E-01
   1.479E+04   1.747E+02   9.931E-01
   1.514E+04   1.746E+02   9.929E-01
   1.549E+04   1.745E+02   9.926E-01
   1.585E+04   1.743E+02   9.924E-01
   1.622E+04   1.742E+02   9.922E-01
   1.660E+04   1.741E+02   9.920E-01
   1.698E+04   1.739E+02   9.917E-01
   1.738E+04   1.738E+02   9.914E-01
   1.778E+04   1.737E+02   9.912E-01
   1.820E+04   1.735E+02   9.909E-01
   1.862E+04   1.734E+02   9.906E-01
   1.905E+04   1.732E+02   9.903E-01
   1.950E+04   1.730E+02   9.899E-01
   1.995E+04   1.729E+02   9.896E-01
   2.042E+04   1.727E+02   9.892E-01
   2.089E+04   1.726E+02   9.889E-01
   2.138E+04   1.724E+02   9.885E-01
   2.188E+04   1.722E+02   9.881E-01
   2.239E+04   1.720E+02   9.876E-01
   2.291E+04   1.718E+02   9.872E-01
   2.344E+04   1.717E+02   9.867E-01
   2.399E+04   1.715E+02   9.862E-01
   2.455E+04   1.713E+02   9.857E-01
   2.512E+04   1.711E+02   9.852E-01
   2.570E+04   1.709E+02   9.846E-01
   2.630E+04   1.706E+02   9.840E-01
   2.692E+04   1.704E+02   9.834E-01
   2.754E+04   1.702E+02   9.828E-01
   2.818E+04   1.700E+02   9.821E-01
   2.884E+04   1.698E+02   9.814E-01
   2.951E+04   1.695E+02   9.807E-01
   3.020E+04   1.693E+02   9.799E-01
   3.090E+04   1.690E+02   9.791E-01
   3.162E+04   1.688E+02   9.783E-01
   3.236E+04   1.685E+02   9.774E-01
   3.311E+04   1.683E+02   9.765E-01
   3.388E+04   1.680E+02   9.756E-01
   3.467E+04   1.677E+02   9.746E-01
   3.548E+04   1.675E+02   9.735E-01
   3.631E+04   1.672E+02   9.725E-01
   3.715E+04   1.669E+02   9.713E-01
   3.802E+04   1.666E+02   9.702E-01
   3.890E+04   1.663E+02   9.689E-01
   3.981E+04   1.660E+02   9.677E-01
   4.074E+04   1.657E+02   9.663E-01
   4.169E+04   1.654E+02   9.649E-01
   4.266E+04   1.650E+02   9.635E-01
   4.365E+04   1.647E+02   9.620E-01
   4.467E+04   1.644E+02   9.604E-01
   4.571E+04   1.640E+02   9.588E-01
   4.677E+04   1.637E+02   9.570E-01
   4.786E+04   1.633E+02   9.553E-01
   4.898E+04   1.629E+02   9.534E-01
   5.012E+04   1.626E+02   9.515E-01
   5.129E+04   1.622E+02   9.495E-01
   5.248E+04   1.618E+02   9.474E-01
   5.370E+04   1.614E+02   9.452E-01
   5.495E+04   1.610E+02   9.430E-01
   5.623E+04   1.606E+02   9.406E-01
   5.754E+04   1.602E+02   9.382E-01
   5.888E+04   1.598E+02   9.356E-01
   6.026E+04   1.593E+02   9.330E-01
   6.166E+04   1.589E+02   9.303E-01
   6.310E+04   1.584E+02   9.275E-01
   6.457E+04   1.580E+02   9.245E-01
   6.607E+04   1.575E+02   9.215E-01
   6.761E+04   1.570E+02   9.183E-01
   6.918E+04   1.566E+02   9.150E-01
   7.079E+04   1.561E+02   9.116E-01
   7.244E+04   1.556E+02   9.081E-01
   7.413E+04   1.551E+02   9.045E-01
   7.586E+04   1.546E+02   9.007E-01
   7.762E+04   1.541E+02   8.968E-01
   7.943E+04   1.535E+02   8.928E-01
   8.128E+04   1.530E+02   8.887E-01
   8.318E+04   1.525E+02   8.844E-01
   8.511E+04   1.519E+02   8.800E-01
   8.710E+04   1.514E+02   8.754E-01
   8.913E+04   1.508E+02   8.707E-01
   9.120E+04   1.503E+02   8.659E-01
   9.333E+04   1.497E+02   8.609E-01
   9.550E+04   1.491E+02   8.558E-01
   9.772E+04   1.485E+02   8.505E-01
   1.000E+05   1.479E+02   8.451E-01
   1.023E+05   1.473E+02   8.395E-01
   1.047E+05   1.467E+02   8.338E-01
   1.072E+05   1.461E+02   8.280E-01
   1.096E+05   1.455E+02   8.220E-01
   1.122E+05   1.449E+02   8.158E-01
   1.148E+05   1.443E+02   8.096E-01
   1.175E+05   1.436E+02   8.031E-01
   1.202E+05   1.430E+02   7.966E-01
   1.230E+05   1.424E+02   7.898E-01
   1.259E+05   1.417E+02   7.830E-01
   1.288E+05   1.411E+02   7.760E-01
   1.318E+05   1.404E+02   7.689E-01
   1.349E+05   1.398E+02   7.617E-01
   1.380E+05   1.391E+02   7.543E-01
   1.413E+05   1.385E+02   7.468E-01
   1.445E+05   1.378E+02   7.392E-01
   1.479E+05   1.372E+02   7.314E-01
   1.514E+05   1.365E+02   7.236E-01
   1.549E+05   1.359E+02   7.157E-01
   1.585E+05   1.352E+02   7.076E-01
   1.622E+05   1.345E+02   6.995E-01
   1.660E+05   1.339E+02   6.913E-01
   1.698E+05   1.332E+02   6.830E-01
   1.738E+05   1.326E+02   6.746E-01
   1.778E+05   1.319E+02   6.661E-01
   1.820E+05   1.313E+02   6.576E-01
   1.862E+05   1.306E+02   6.490E-01
   1.905E+05   1.299E+02   6.403E-01
   1.950E+05   1.293E+02   6.317E-01
   1.995E+05   1.287E+02   6.229E-01
   2.042E+05   1.280E+02   6.142E-01
   2.089E+05   1.274E+02   6.054E-01
   2.138E+05   1.267E+02   5.966E-01
   2.188E+05   1.261E+02   5.877E-01
   2.239E+05   1.255E+02   5.789E-01
   2.291E+05   1.249E+02   5.701E-01
   2.344E+05   1.242E+02   5.612E-01
   2.399E+05   1.236E+02   5.524E-01
   2.455E+05   1.230E+02   5.436E-01
   2.512E+05   1.224E+02   5.348E-01
   2.570E+05   1.218E+02   5.260E-01
   2.630E+05   1.212E+02   5.173E-01
   2.692E+05   1.207E+02   5.086E-01
   2.754E+05   1.201E+02   5.000E-01
   2.818E+05   1.195E+02   4.914E-01
   2.884E+05   1.190E+02   4.829E-01
   2.951E+05   1.184E+02   4.744E-01
   3.020E+05   1.179E+02   4.660E-01
   3.090E+05   1.173E+02   4.576E-01
   3.162E+05   1.168E+02   4.493E-01
   3.236E+05   1.163E+02   4.411E-01
   3.311E+05   1.157E+02   4.330E-01
   3.388E+05   1.152E+02   4.249E-01
   3.467E+05   1.147E+02   4.170E-01
   3.548E+05   1.142E+02   4.091E-01
   3.631E+05   1.137E+02   4.013E-01
   3.715E+05   1.132E+02   3.936E-01
   3.802E+05   1.128E+02   3.860E-01
   3.890E+05   1.123E+02   3.785E-01
   3.981E+05   1.118E+02   3.711E-01
   4.074E+05   1.114E+02   3.638E-01
   4.169E+05   1.109E+02   3.566E-01
   4.266E+05   1.105E+02   3.494E-01
   4.365E+05   1.101E+02   3.424E-01
   4.467E+05   1.097E+02   3.355E-01
   4.571E+05   1.092E+02   3.287E-01
   4.677E+05   1.088E+02   3.220E-01
   4.786E+05   1.084E+02   3.155E-01
   4.898E+05   1.080E+02   3.090E-01
   5.012E+05   1.077E+02   3.026E-01
   5.129E+05   1.073E+02   2.963E-01
   5.248E+05   1.069E+02   2.901E-01
   5.370E+05   1.066E+02   2.841E-01
   5.495E+05   1.062E+02   2.781E-01
   5.623E+05   1.058E+02   2.723E-01
   5.754E+05   1.055E+02   2.665E-01
   5.888E+05   1.052E+02   2.609E-01
   6.026E+05   1.048E+02   2.553E-01
   6.166E+05   1.045E+02   2.499E-01
   6.310E+05   1.042E+02   2.445E-01
   6.457E+05   1.039E+02   2.393E-01
   6.607E+05   1.036E+02   2.342E-01
   6.761E+05   1.033E+02   2.291E-01
   6.918E+05   1.030E+02   2.242E-01
   7.079E+05   1.027E+02   2.193E-01
   7.244E+05   1.024E+02   2.146E-01
   7.413E+05   1.021E+02   2.099E-01
   7.586E+05   1.019E+02   2.053E-01
   7.762E+05   1.016E+02   2.008E-01
   7.943E+05   1.014E+02   1.964E-01
   8.128E+05   1.011E+02   1.921E-01
   8.318E+05   1.009E+02   1.879E-01
   8.511E+05   1.006E+02   1.838E-01
   8.710E+05   1.004E+02   1.797E-01
   8.913E+05   1.002E+02   1.758E-01
   9.120E+05   9.993E+01   1.719E-01
   9.333E+05   9.970E+01   1.681E-01
   9.550E+05   9.949E+01   1.644E-01
   9.772E+05   9.927E+01   1.607E-01
   1.000E+06   9.907E+01   1.572E-01


          JOB CONCLUDED

**** 10/23/21 12:24:21 ****** PSpice 17.2.0 (March 2016) ****** ID# 0 ********

 eg16.34


 ****     JOB STATISTICS SUMMARY


******************************************************************************



  Total job time (using Solver 1)   =         .05
