
**** 09/19/21 22:33:14 ****** PSpice 17.2.0 (March 2016) ****** ID# 0 ********

 EG16.23


 ****     CIRCUIT DESCRIPTION


******************************************************************************



IB 0 1
VCE 2 0
Q 2 1 0 Q2N3903
.LIB EVAL.LIB
.DC VCE 0 5 0.1 IB 0 20E-6 4E-6
.PROBE
.END

ERROR(ORPSIM-15113): Model Q2N3903 used by Q is undefined
