
**** 10/24/21 19:46:29 ****** PSpice 17.2.0 (March 2016) ****** ID# 0 ********

 EG16.32


 ****     CIRCUIT DESCRIPTION


******************************************************************************



VCC 5 0 DC 10V
RC 5 2 980
RB1 5 3 26E3
RB2 3 0 26E3
RE 4 0 2E3
CC 1 3 10E-6
Q 2 3 4 QMOD
*.MODEL QMOD NPN (IS=3.6E-15)
*V1 1 0 AC 1E-6
.AC LIN 1000 1 1E4
V1 1 0 SIN(0 1E-3 1000)
.TRAN 0.5E-5 5E-3
.PROBE
.END

ERROR(ORPSIM-15113): Model QMOD used by Q is undefined
