
**** 09/19/21 17:30:53 ****** PSpice 17.2.0 (March 2016) ****** ID# 0 ********

 EG16.20


 ****     CIRCUIT DESCRIPTION


******************************************************************************



V1 1 0 SIN(0 24 60)
D1 1 2 D1N4148
C1 2 0 10E-6
R1 2 0 10E3
.TRAN 0.01 10 0
.PROBE
.END

ERROR(ORPSIM-15113): Model D1N4148 used by D1 is undefined
