
**** 09/19/21 22:51:27 ****** PSpice 17.2.0 (March 2016) ****** ID# 0 ********

 EG16.23


 ****     CIRCUIT DESCRIPTION


******************************************************************************



IB 0 1
VCE 2 0
Q 2 1 0 Q2N3904
.LIB EVAL.LIB
.DC VCE 0 5 0.1 IB 0 20E-6 4E-6
.PROBE
.END

**** 09/19/21 22:51:27 ****** PSpice 17.2.0 (March 2016) ****** ID# 0 ********

 EG16.23


 ****     BJT MODEL PARAMETERS


******************************************************************************




               Q2N3904         
               NPN             
       LEVEL    1            
          IS    6.734000E-15 
          BF  416.4          
          NF    1            
         VAF   74.03         
         IKF     .06678      
         ISE    6.734000E-15 
          NE    1.259        
          BR     .7371       
          NR    1            
         ISS    0            
          RB   10            
          RE    0            
          RC    1            
         CJE    4.493000E-12 
         VJE     .75         
         MJE     .2593       
         CJC    3.638000E-12 
         VJC     .75         
         MJC     .3085       
        XCJC    1            
         CJS    0            
         VJS     .75         
          TF  301.200000E-12 
         XTF    2            
         VTF    4            
         ITF     .4          
          TR  239.500000E-09 
         XTB    1.5          
          KF    0            
          AF    1            
          CN    2.42         
           D     .87         



          JOB CONCLUDED

**** 09/19/21 22:51:27 ****** PSpice 17.2.0 (March 2016) ****** ID# 0 ********

 EG16.23


 ****     JOB STATISTICS SUMMARY


******************************************************************************



  Total job time (using Solver 1)   =         .06
