
**** 09/19/21 17:35:25 ****** PSpice 17.2.0 (March 2016) ****** ID# 0 ********

 EG16.20


 ****     CIRCUIT DESCRIPTION


******************************************************************************



V1 1 0 SIN(0 24 60)
D1 1 2 D1N4148
C1 2 0 10E-6
R1 2 0 10E3
.LIB EVAL.LIB
.TRAN 2E-6 50E-3 0
.PROBE
.END

**** 09/19/21 17:35:25 ****** PSpice 17.2.0 (March 2016) ****** ID# 0 ********

 EG16.20


 ****     Diode MODEL PARAMETERS


******************************************************************************




               D1N4148         
          IS    2.682000E-09 
           N    1.836        
         ISR    1.565000E-09 
         IKF     .04417      
          BV  100            
         IBV  100.000000E-06 
          RS     .5664       
          TT   11.540000E-09 
         CJO    4.000000E-12 
          VJ     .5          
           M     .3333       


**** 09/19/21 17:35:25 ****** PSpice 17.2.0 (March 2016) ****** ID# 0 ********

 EG16.20


 ****     INITIAL TRANSIENT SOLUTION       TEMPERATURE =   27.000 DEG C


******************************************************************************



 NODE   VOLTAGE     NODE   VOLTAGE     NODE   VOLTAGE     NODE   VOLTAGE


(    1)    0.0000  (    2)-98.93E-18  




    VOLTAGE SOURCE CURRENTS
    NAME         CURRENT

    V1           9.893E-21

    TOTAL POWER DISSIPATION   0.00E+00  WATTS



          JOB CONCLUDED

**** 09/19/21 17:35:25 ****** PSpice 17.2.0 (March 2016) ****** ID# 0 ********

 EG16.20


 ****     JOB STATISTICS SUMMARY


******************************************************************************



  Total job time (using Solver 1)   =        0.00
